<routes>

    <vType id="typeW" accel="0.8" decel="4.5" sigma="0.3" length="5" minGap="2.0" maxSpeed="25" guiShape="passenger"/>
    <vType id="typeN" accel="0.8" decel="4.5" sigma="0.3" length="5" minGap="2.0" maxSpeed="25" guiShape="passenger"/>
    <vType id="typeS" accel="0.8" decel="4.5" sigma="0.3" length="5" minGap="2.0" maxSpeed="25" guiShape="passenger"/>
    <vType id="typeE" accel="0.8" decel="4.5" sigma="0.3" length="5" minGap="2.0" maxSpeed="25" guiShape="passenger"/>

    <route id="north-south" edges="ne-n nc cs s-se " />
    <route id="north-west" edges="ne-n nc cw w-we" />
    <route id="east-north" edges="ee-e ec cn n-ne" />
    <route id="east-west" edges="ee-e ec cw w-we" />
    <route id="south-north" edges="se-s sc cn n-ne" />
    <route id="south-east" edges="se-s sc ce e-ee" />
    <route id="west-east" edges="we-w wc ce e-ee" />
    <route id="west-south" edges="we-w wc cs s-se" />
    
    <vehicle id="we_0" type="typeW" route="west-east" depart="0" color="#4169E1"/>
    <vehicle id="ws_1" type="typeW" route="west-south" depart="1" color="#F0E68C"/>
    <vehicle id="we_2" type="typeW" route="west-east" depart="2" color="#4169E1"/>
    <vehicle id="ws_3" type="typeW" route="west-south" depart="3" color="#F0E68C"/>
    <vehicle id="en_4" type="typeE" route="east-north" depart="4" color="#800000"/>
    <vehicle id="ew_5" type="typeE" route="east-west" depart="5" color="#2E8B57"/>
    <vehicle id="sn_6" type="typeS" route="south-north" depart="6" color="#800000"/>
    <vehicle id="se_7" type="typeS" route="south-east" depart="7" color="#4169E1"/>
    <vehicle id="we_8" type="typeW" route="west-east" depart="8" color="#4169E1"/>
    <vehicle id="ws_9" type="typeW" route="west-south" depart="9" color="#F0E68C"/>
    <vehicle id="sn_10" type="typeS" route="south-north" depart="10" color="#800000"/>
    <vehicle id="se_11" type="typeS" route="south-east" depart="11" color="#4169E1"/>
    <vehicle id="we_12" type="typeW" route="west-east" depart="12" color="#4169E1"/>
    <vehicle id="ws_13" type="typeW" route="west-south" depart="13" color="#F0E68C"/>
    <vehicle id="en_14" type="typeE" route="east-north" depart="14" color="#800000"/>
    <vehicle id="ew_15" type="typeE" route="east-west" depart="15" color="#2E8B57"/>
    <vehicle id="en_16" type="typeE" route="east-north" depart="16" color="#800000"/>
    <vehicle id="ew_17" type="typeE" route="east-west" depart="17" color="#2E8B57"/>
    <vehicle id="ns_18" type="typeN" route="north-south" depart="18" color="#F0E68C"/>
    <vehicle id="nw_19" type="typeN" route="north-west" depart="19" color="#2E8B57"/>
    <vehicle id="we_20" type="typeW" route="west-east" depart="20" color="#4169E1"/>
    <vehicle id="ws_21" type="typeW" route="west-south" depart="21" color="#F0E68C"/>
    <vehicle id="ns_22" type="typeN" route="north-south" depart="22" color="#F0E68C"/>
    <vehicle id="nw_23" type="typeN" route="north-west" depart="23" color="#2E8B57"/>
    <vehicle id="we_24" type="typeW" route="west-east" depart="24" color="#4169E1"/>
    <vehicle id="ws_25" type="typeW" route="west-south" depart="25" color="#F0E68C"/>
    <vehicle id="en_26" type="typeE" route="east-north" depart="26" color="#800000"/>
    <vehicle id="ew_27" type="typeE" route="east-west" depart="27" color="#2E8B57"/>
    <vehicle id="ns_28" type="typeN" route="north-south" depart="28" color="#F0E68C"/>
    <vehicle id="nw_29" type="typeN" route="north-west" depart="29" color="#2E8B57"/>
    <vehicle id="en_30" type="typeE" route="east-north" depart="30" color="#800000"/>
    <vehicle id="ew_31" type="typeE" route="east-west" depart="31" color="#2E8B57"/>
    <vehicle id="ns_32" type="typeN" route="north-south" depart="32" color="#F0E68C"/>
    <vehicle id="nw_33" type="typeN" route="north-west" depart="33" color="#2E8B57"/>
    <vehicle id="sn_34" type="typeS" route="south-north" depart="34" color="#800000"/>
    <vehicle id="se_35" type="typeS" route="south-east" depart="35" color="#4169E1"/>
    <vehicle id="sn_36" type="typeS" route="south-north" depart="36" color="#800000"/>
    <vehicle id="se_37" type="typeS" route="south-east" depart="37" color="#4169E1"/>
    <vehicle id="we_38" type="typeW" route="west-east" depart="38" color="#4169E1"/>
    <vehicle id="ws_39" type="typeW" route="west-south" depart="39" color="#F0E68C"/>
    <vehicle id="we_40" type="typeW" route="west-east" depart="40" color="#4169E1"/>
    <vehicle id="ws_41" type="typeW" route="west-south" depart="41" color="#F0E68C"/>
    <vehicle id="we_42" type="typeW" route="west-east" depart="42" color="#4169E1"/>
    <vehicle id="ws_43" type="typeW" route="west-south" depart="43" color="#F0E68C"/>
    <vehicle id="en_44" type="typeE" route="east-north" depart="44" color="#800000"/>
    <vehicle id="ew_45" type="typeE" route="east-west" depart="45" color="#2E8B57"/>
    <vehicle id="ns_46" type="typeN" route="north-south" depart="46" color="#F0E68C"/>
    <vehicle id="nw_47" type="typeN" route="north-west" depart="47" color="#2E8B57"/>
    <vehicle id="en_48" type="typeE" route="east-north" depart="48" color="#800000"/>
    <vehicle id="ew_49" type="typeE" route="east-west" depart="49" color="#2E8B57"/>
    <vehicle id="sn_50" type="typeS" route="south-north" depart="50" color="#800000"/>
    <vehicle id="se_51" type="typeS" route="south-east" depart="51" color="#4169E1"/>
    <vehicle id="we_52" type="typeW" route="west-east" depart="52" color="#4169E1"/>
    <vehicle id="ws_53" type="typeW" route="west-south" depart="53" color="#F0E68C"/>
    <vehicle id="ns_54" type="typeN" route="north-south" depart="54" color="#F0E68C"/>
    <vehicle id="nw_55" type="typeN" route="north-west" depart="55" color="#2E8B57"/>
    <vehicle id="we_56" type="typeW" route="west-east" depart="56" color="#4169E1"/>
    <vehicle id="ws_57" type="typeW" route="west-south" depart="57" color="#F0E68C"/>
    <vehicle id="en_58" type="typeE" route="east-north" depart="58" color="#800000"/>
    <vehicle id="ew_59" type="typeE" route="east-west" depart="59" color="#2E8B57"/>
    <vehicle id="en_60" type="typeE" route="east-north" depart="60" color="#800000"/>
    <vehicle id="ew_61" type="typeE" route="east-west" depart="61" color="#2E8B57"/>
    <vehicle id="en_62" type="typeE" route="east-north" depart="62" color="#800000"/>
    <vehicle id="ew_63" type="typeE" route="east-west" depart="63" color="#2E8B57"/>
    <vehicle id="we_64" type="typeW" route="west-east" depart="64" color="#4169E1"/>
    <vehicle id="ws_65" type="typeW" route="west-south" depart="65" color="#F0E68C"/>
    <vehicle id="ns_66" type="typeN" route="north-south" depart="66" color="#F0E68C"/>
    <vehicle id="nw_67" type="typeN" route="north-west" depart="67" color="#2E8B57"/>
    <vehicle id="sn_68" type="typeS" route="south-north" depart="68" color="#800000"/>
    <vehicle id="se_69" type="typeS" route="south-east" depart="69" color="#4169E1"/>
    <vehicle id="en_70" type="typeE" route="east-north" depart="70" color="#800000"/>
    <vehicle id="ew_71" type="typeE" route="east-west" depart="71" color="#2E8B57"/>
    <vehicle id="ns_72" type="typeN" route="north-south" depart="72" color="#F0E68C"/>
    <vehicle id="nw_73" type="typeN" route="north-west" depart="73" color="#2E8B57"/>
    <vehicle id="en_74" type="typeE" route="east-north" depart="74" color="#800000"/>
    <vehicle id="ew_75" type="typeE" route="east-west" depart="75" color="#2E8B57"/>
    <vehicle id="en_76" type="typeE" route="east-north" depart="76" color="#800000"/>
    <vehicle id="ew_77" type="typeE" route="east-west" depart="77" color="#2E8B57"/>
    <vehicle id="ns_78" type="typeN" route="north-south" depart="78" color="#F0E68C"/>
    <vehicle id="nw_79" type="typeN" route="north-west" depart="79" color="#2E8B57"/>
    <vehicle id="sn_80" type="typeS" route="south-north" depart="80" color="#800000"/>
    <vehicle id="se_81" type="typeS" route="south-east" depart="81" color="#4169E1"/>
    <vehicle id="we_82" type="typeW" route="west-east" depart="82" color="#4169E1"/>
    <vehicle id="ws_83" type="typeW" route="west-south" depart="83" color="#F0E68C"/>
    <vehicle id="ns_84" type="typeN" route="north-south" depart="84" color="#F0E68C"/>
    <vehicle id="nw_85" type="typeN" route="north-west" depart="85" color="#2E8B57"/>
    <vehicle id="we_86" type="typeW" route="west-east" depart="86" color="#4169E1"/>
    <vehicle id="ws_87" type="typeW" route="west-south" depart="87" color="#F0E68C"/>
    <vehicle id="ns_88" type="typeN" route="north-south" depart="88" color="#F0E68C"/>
    <vehicle id="nw_89" type="typeN" route="north-west" depart="89" color="#2E8B57"/>
    <vehicle id="we_90" type="typeW" route="west-east" depart="90" color="#4169E1"/>
    <vehicle id="ws_91" type="typeW" route="west-south" depart="91" color="#F0E68C"/>
    <vehicle id="we_92" type="typeW" route="west-east" depart="92" color="#4169E1"/>
    <vehicle id="ws_93" type="typeW" route="west-south" depart="93" color="#F0E68C"/>
    <vehicle id="we_94" type="typeW" route="west-east" depart="94" color="#4169E1"/>
    <vehicle id="ws_95" type="typeW" route="west-south" depart="95" color="#F0E68C"/>
    <vehicle id="sn_96" type="typeS" route="south-north" depart="96" color="#800000"/>
    <vehicle id="se_97" type="typeS" route="south-east" depart="97" color="#4169E1"/>
    <vehicle id="we_98" type="typeW" route="west-east" depart="98" color="#4169E1"/>
    <vehicle id="ws_99" type="typeW" route="west-south" depart="99" color="#F0E68C"/>
    <vehicle id="en_100" type="typeE" route="east-north" depart="100" color="#800000"/>
    <vehicle id="ew_101" type="typeE" route="east-west" depart="101" color="#2E8B57"/>
    <vehicle id="ns_102" type="typeN" route="north-south" depart="102" color="#F0E68C"/>
    <vehicle id="nw_103" type="typeN" route="north-west" depart="103" color="#2E8B57"/>
    <vehicle id="en_104" type="typeE" route="east-north" depart="104" color="#800000"/>
    <vehicle id="ew_105" type="typeE" route="east-west" depart="105" color="#2E8B57"/>
    <vehicle id="we_106" type="typeW" route="west-east" depart="106" color="#4169E1"/>
    <vehicle id="ws_107" type="typeW" route="west-south" depart="107" color="#F0E68C"/>
    <vehicle id="we_108" type="typeW" route="west-east" depart="108" color="#4169E1"/>
    <vehicle id="ws_109" type="typeW" route="west-south" depart="109" color="#F0E68C"/>
    <vehicle id="ns_110" type="typeN" route="north-south" depart="110" color="#F0E68C"/>
    <vehicle id="nw_111" type="typeN" route="north-west" depart="111" color="#2E8B57"/>
    <vehicle id="we_112" type="typeW" route="west-east" depart="112" color="#4169E1"/>
    <vehicle id="ws_113" type="typeW" route="west-south" depart="113" color="#F0E68C"/>
    <vehicle id="sn_114" type="typeS" route="south-north" depart="114" color="#800000"/>
    <vehicle id="se_115" type="typeS" route="south-east" depart="115" color="#4169E1"/>
    <vehicle id="sn_116" type="typeS" route="south-north" depart="116" color="#800000"/>
    <vehicle id="se_117" type="typeS" route="south-east" depart="117" color="#4169E1"/>
    <vehicle id="we_118" type="typeW" route="west-east" depart="118" color="#4169E1"/>
    <vehicle id="ws_119" type="typeW" route="west-south" depart="119" color="#F0E68C"/>
    <vehicle id="en_120" type="typeE" route="east-north" depart="120" color="#800000"/>
    <vehicle id="ew_121" type="typeE" route="east-west" depart="121" color="#2E8B57"/>
    <vehicle id="we_122" type="typeW" route="west-east" depart="122" color="#4169E1"/>
    <vehicle id="ws_123" type="typeW" route="west-south" depart="123" color="#F0E68C"/>
    <vehicle id="we_124" type="typeW" route="west-east" depart="124" color="#4169E1"/>
    <vehicle id="ws_125" type="typeW" route="west-south" depart="125" color="#F0E68C"/>
    <vehicle id="ns_126" type="typeN" route="north-south" depart="126" color="#F0E68C"/>
    <vehicle id="nw_127" type="typeN" route="north-west" depart="127" color="#2E8B57"/>
    <vehicle id="en_128" type="typeE" route="east-north" depart="128" color="#800000"/>
    <vehicle id="ew_129" type="typeE" route="east-west" depart="129" color="#2E8B57"/>
    <vehicle id="we_130" type="typeW" route="west-east" depart="130" color="#4169E1"/>
    <vehicle id="ws_131" type="typeW" route="west-south" depart="131" color="#F0E68C"/>
    <vehicle id="we_132" type="typeW" route="west-east" depart="132" color="#4169E1"/>
    <vehicle id="ws_133" type="typeW" route="west-south" depart="133" color="#F0E68C"/>
    <vehicle id="en_134" type="typeE" route="east-north" depart="134" color="#800000"/>
    <vehicle id="ew_135" type="typeE" route="east-west" depart="135" color="#2E8B57"/>
    <vehicle id="en_136" type="typeE" route="east-north" depart="136" color="#800000"/>
    <vehicle id="ew_137" type="typeE" route="east-west" depart="137" color="#2E8B57"/>
    <vehicle id="we_138" type="typeW" route="west-east" depart="138" color="#4169E1"/>
    <vehicle id="ws_139" type="typeW" route="west-south" depart="139" color="#F0E68C"/>
    <vehicle id="we_140" type="typeW" route="west-east" depart="140" color="#4169E1"/>
    <vehicle id="ws_141" type="typeW" route="west-south" depart="141" color="#F0E68C"/>
    <vehicle id="sn_142" type="typeS" route="south-north" depart="142" color="#800000"/>
    <vehicle id="se_143" type="typeS" route="south-east" depart="143" color="#4169E1"/>
    <vehicle id="we_144" type="typeW" route="west-east" depart="144" color="#4169E1"/>
    <vehicle id="ws_145" type="typeW" route="west-south" depart="145" color="#F0E68C"/>
    <vehicle id="sn_146" type="typeS" route="south-north" depart="146" color="#800000"/>
    <vehicle id="se_147" type="typeS" route="south-east" depart="147" color="#4169E1"/>
    <vehicle id="ns_148" type="typeN" route="north-south" depart="148" color="#F0E68C"/>
    <vehicle id="nw_149" type="typeN" route="north-west" depart="149" color="#2E8B57"/>
    <vehicle id="sn_150" type="typeS" route="south-north" depart="150" color="#800000"/>
    <vehicle id="se_151" type="typeS" route="south-east" depart="151" color="#4169E1"/>
    <vehicle id="en_152" type="typeE" route="east-north" depart="152" color="#800000"/>
    <vehicle id="ew_153" type="typeE" route="east-west" depart="153" color="#2E8B57"/>
    <vehicle id="ns_154" type="typeN" route="north-south" depart="154" color="#F0E68C"/>
    <vehicle id="nw_155" type="typeN" route="north-west" depart="155" color="#2E8B57"/>
    <vehicle id="en_156" type="typeE" route="east-north" depart="156" color="#800000"/>
    <vehicle id="ew_157" type="typeE" route="east-west" depart="157" color="#2E8B57"/>
    <vehicle id="sn_158" type="typeS" route="south-north" depart="158" color="#800000"/>
    <vehicle id="se_159" type="typeS" route="south-east" depart="159" color="#4169E1"/>
    <vehicle id="we_160" type="typeW" route="west-east" depart="160" color="#4169E1"/>
    <vehicle id="ws_161" type="typeW" route="west-south" depart="161" color="#F0E68C"/>
    <vehicle id="ns_162" type="typeN" route="north-south" depart="162" color="#F0E68C"/>
    <vehicle id="nw_163" type="typeN" route="north-west" depart="163" color="#2E8B57"/>
    <vehicle id="ns_164" type="typeN" route="north-south" depart="164" color="#F0E68C"/>
    <vehicle id="nw_165" type="typeN" route="north-west" depart="165" color="#2E8B57"/>
    <vehicle id="we_166" type="typeW" route="west-east" depart="166" color="#4169E1"/>
    <vehicle id="ws_167" type="typeW" route="west-south" depart="167" color="#F0E68C"/>
    <vehicle id="en_168" type="typeE" route="east-north" depart="168" color="#800000"/>
    <vehicle id="ew_169" type="typeE" route="east-west" depart="169" color="#2E8B57"/>
    <vehicle id="ns_170" type="typeN" route="north-south" depart="170" color="#F0E68C"/>
    <vehicle id="nw_171" type="typeN" route="north-west" depart="171" color="#2E8B57"/>
    <vehicle id="sn_172" type="typeS" route="south-north" depart="172" color="#800000"/>
    <vehicle id="se_173" type="typeS" route="south-east" depart="173" color="#4169E1"/>
    <vehicle id="en_174" type="typeE" route="east-north" depart="174" color="#800000"/>
    <vehicle id="ew_175" type="typeE" route="east-west" depart="175" color="#2E8B57"/>
    <vehicle id="en_176" type="typeE" route="east-north" depart="176" color="#800000"/>
    <vehicle id="ew_177" type="typeE" route="east-west" depart="177" color="#2E8B57"/>
    <vehicle id="ns_178" type="typeN" route="north-south" depart="178" color="#F0E68C"/>
    <vehicle id="nw_179" type="typeN" route="north-west" depart="179" color="#2E8B57"/>
    <vehicle id="ns_180" type="typeN" route="north-south" depart="180" color="#F0E68C"/>
    <vehicle id="nw_181" type="typeN" route="north-west" depart="181" color="#2E8B57"/>
    <vehicle id="we_182" type="typeW" route="west-east" depart="182" color="#4169E1"/>
    <vehicle id="ws_183" type="typeW" route="west-south" depart="183" color="#F0E68C"/>
    <vehicle id="ns_184" type="typeN" route="north-south" depart="184" color="#F0E68C"/>
    <vehicle id="nw_185" type="typeN" route="north-west" depart="185" color="#2E8B57"/>
    <vehicle id="sn_186" type="typeS" route="south-north" depart="186" color="#800000"/>
    <vehicle id="se_187" type="typeS" route="south-east" depart="187" color="#4169E1"/>
    <vehicle id="en_188" type="typeE" route="east-north" depart="188" color="#800000"/>
    <vehicle id="ew_189" type="typeE" route="east-west" depart="189" color="#2E8B57"/>
    <vehicle id="we_190" type="typeW" route="west-east" depart="190" color="#4169E1"/>
    <vehicle id="ws_191" type="typeW" route="west-south" depart="191" color="#F0E68C"/>
    <vehicle id="we_192" type="typeW" route="west-east" depart="192" color="#4169E1"/>
    <vehicle id="ws_193" type="typeW" route="west-south" depart="193" color="#F0E68C"/>
    <vehicle id="ns_194" type="typeN" route="north-south" depart="194" color="#F0E68C"/>
    <vehicle id="nw_195" type="typeN" route="north-west" depart="195" color="#2E8B57"/>
    <vehicle id="sn_196" type="typeS" route="south-north" depart="196" color="#800000"/>
    <vehicle id="se_197" type="typeS" route="south-east" depart="197" color="#4169E1"/>
    <vehicle id="ns_198" type="typeN" route="north-south" depart="198" color="#F0E68C"/>
    <vehicle id="nw_199" type="typeN" route="north-west" depart="199" color="#2E8B57"/>
    <vehicle id="ns_200" type="typeN" route="north-south" depart="200" color="#F0E68C"/>
    <vehicle id="nw_201" type="typeN" route="north-west" depart="201" color="#2E8B57"/>
    <vehicle id="sn_202" type="typeS" route="south-north" depart="202" color="#800000"/>
    <vehicle id="se_203" type="typeS" route="south-east" depart="203" color="#4169E1"/>
    <vehicle id="ns_204" type="typeN" route="north-south" depart="204" color="#F0E68C"/>
    <vehicle id="nw_205" type="typeN" route="north-west" depart="205" color="#2E8B57"/>
    <vehicle id="we_206" type="typeW" route="west-east" depart="206" color="#4169E1"/>
    <vehicle id="ws_207" type="typeW" route="west-south" depart="207" color="#F0E68C"/>
    <vehicle id="we_208" type="typeW" route="west-east" depart="208" color="#4169E1"/>
    <vehicle id="ws_209" type="typeW" route="west-south" depart="209" color="#F0E68C"/>
    <vehicle id="en_210" type="typeE" route="east-north" depart="210" color="#800000"/>
    <vehicle id="ew_211" type="typeE" route="east-west" depart="211" color="#2E8B57"/>
    <vehicle id="en_212" type="typeE" route="east-north" depart="212" color="#800000"/>
    <vehicle id="ew_213" type="typeE" route="east-west" depart="213" color="#2E8B57"/>
    <vehicle id="sn_214" type="typeS" route="south-north" depart="214" color="#800000"/>
    <vehicle id="se_215" type="typeS" route="south-east" depart="215" color="#4169E1"/>
    <vehicle id="sn_216" type="typeS" route="south-north" depart="216" color="#800000"/>
    <vehicle id="se_217" type="typeS" route="south-east" depart="217" color="#4169E1"/>
    <vehicle id="en_218" type="typeE" route="east-north" depart="218" color="#800000"/>
    <vehicle id="ew_219" type="typeE" route="east-west" depart="219" color="#2E8B57"/>
    <vehicle id="sn_220" type="typeS" route="south-north" depart="220" color="#800000"/>
    <vehicle id="se_221" type="typeS" route="south-east" depart="221" color="#4169E1"/>
    <vehicle id="we_222" type="typeW" route="west-east" depart="222" color="#4169E1"/>
    <vehicle id="ws_223" type="typeW" route="west-south" depart="223" color="#F0E68C"/>
    <vehicle id="en_224" type="typeE" route="east-north" depart="224" color="#800000"/>
    <vehicle id="ew_225" type="typeE" route="east-west" depart="225" color="#2E8B57"/>
    <vehicle id="sn_226" type="typeS" route="south-north" depart="226" color="#800000"/>
    <vehicle id="se_227" type="typeS" route="south-east" depart="227" color="#4169E1"/>
    <vehicle id="we_228" type="typeW" route="west-east" depart="228" color="#4169E1"/>
    <vehicle id="ws_229" type="typeW" route="west-south" depart="229" color="#F0E68C"/>
    <vehicle id="sn_230" type="typeS" route="south-north" depart="230" color="#800000"/>
    <vehicle id="se_231" type="typeS" route="south-east" depart="231" color="#4169E1"/>
    <vehicle id="en_232" type="typeE" route="east-north" depart="232" color="#800000"/>
    <vehicle id="ew_233" type="typeE" route="east-west" depart="233" color="#2E8B57"/>
    <vehicle id="sn_234" type="typeS" route="south-north" depart="234" color="#800000"/>
    <vehicle id="se_235" type="typeS" route="south-east" depart="235" color="#4169E1"/>
    <vehicle id="sn_236" type="typeS" route="south-north" depart="236" color="#800000"/>
    <vehicle id="se_237" type="typeS" route="south-east" depart="237" color="#4169E1"/>
    <vehicle id="we_238" type="typeW" route="west-east" depart="238" color="#4169E1"/>
    <vehicle id="ws_239" type="typeW" route="west-south" depart="239" color="#F0E68C"/>
    <vehicle id="we_240" type="typeW" route="west-east" depart="240" color="#4169E1"/>
    <vehicle id="ws_241" type="typeW" route="west-south" depart="241" color="#F0E68C"/>
    <vehicle id="en_242" type="typeE" route="east-north" depart="242" color="#800000"/>
    <vehicle id="ew_243" type="typeE" route="east-west" depart="243" color="#2E8B57"/>
    <vehicle id="en_244" type="typeE" route="east-north" depart="244" color="#800000"/>
    <vehicle id="ew_245" type="typeE" route="east-west" depart="245" color="#2E8B57"/>
    <vehicle id="ns_246" type="typeN" route="north-south" depart="246" color="#F0E68C"/>
    <vehicle id="nw_247" type="typeN" route="north-west" depart="247" color="#2E8B57"/>
    <vehicle id="we_248" type="typeW" route="west-east" depart="248" color="#4169E1"/>
    <vehicle id="ws_249" type="typeW" route="west-south" depart="249" color="#F0E68C"/>
    <vehicle id="we_250" type="typeW" route="west-east" depart="250" color="#4169E1"/>
    <vehicle id="ws_251" type="typeW" route="west-south" depart="251" color="#F0E68C"/>
    <vehicle id="en_252" type="typeE" route="east-north" depart="252" color="#800000"/>
    <vehicle id="ew_253" type="typeE" route="east-west" depart="253" color="#2E8B57"/>
    <vehicle id="en_254" type="typeE" route="east-north" depart="254" color="#800000"/>
    <vehicle id="ew_255" type="typeE" route="east-west" depart="255" color="#2E8B57"/>
    <vehicle id="sn_256" type="typeS" route="south-north" depart="256" color="#800000"/>
    <vehicle id="se_257" type="typeS" route="south-east" depart="257" color="#4169E1"/>
    <vehicle id="ns_258" type="typeN" route="north-south" depart="258" color="#F0E68C"/>
    <vehicle id="nw_259" type="typeN" route="north-west" depart="259" color="#2E8B57"/>
    <vehicle id="sn_260" type="typeS" route="south-north" depart="260" color="#800000"/>
    <vehicle id="se_261" type="typeS" route="south-east" depart="261" color="#4169E1"/>
    <vehicle id="we_262" type="typeW" route="west-east" depart="262" color="#4169E1"/>
    <vehicle id="ws_263" type="typeW" route="west-south" depart="263" color="#F0E68C"/>
    <vehicle id="sn_264" type="typeS" route="south-north" depart="264" color="#800000"/>
    <vehicle id="se_265" type="typeS" route="south-east" depart="265" color="#4169E1"/>
    <vehicle id="we_266" type="typeW" route="west-east" depart="266" color="#4169E1"/>
    <vehicle id="ws_267" type="typeW" route="west-south" depart="267" color="#F0E68C"/>
    <vehicle id="ns_268" type="typeN" route="north-south" depart="268" color="#F0E68C"/>
    <vehicle id="nw_269" type="typeN" route="north-west" depart="269" color="#2E8B57"/>
    <vehicle id="we_270" type="typeW" route="west-east" depart="270" color="#4169E1"/>
    <vehicle id="ws_271" type="typeW" route="west-south" depart="271" color="#F0E68C"/>
    <vehicle id="ns_272" type="typeN" route="north-south" depart="272" color="#F0E68C"/>
    <vehicle id="nw_273" type="typeN" route="north-west" depart="273" color="#2E8B57"/>
    <vehicle id="sn_274" type="typeS" route="south-north" depart="274" color="#800000"/>
    <vehicle id="se_275" type="typeS" route="south-east" depart="275" color="#4169E1"/>
    <vehicle id="en_276" type="typeE" route="east-north" depart="276" color="#800000"/>
    <vehicle id="ew_277" type="typeE" route="east-west" depart="277" color="#2E8B57"/>
    <vehicle id="sn_278" type="typeS" route="south-north" depart="278" color="#800000"/>
    <vehicle id="se_279" type="typeS" route="south-east" depart="279" color="#4169E1"/>
    <vehicle id="sn_280" type="typeS" route="south-north" depart="280" color="#800000"/>
    <vehicle id="se_281" type="typeS" route="south-east" depart="281" color="#4169E1"/>
    <vehicle id="en_282" type="typeE" route="east-north" depart="282" color="#800000"/>
    <vehicle id="ew_283" type="typeE" route="east-west" depart="283" color="#2E8B57"/>
    <vehicle id="we_284" type="typeW" route="west-east" depart="284" color="#4169E1"/>
    <vehicle id="ws_285" type="typeW" route="west-south" depart="285" color="#F0E68C"/>
    <vehicle id="ns_286" type="typeN" route="north-south" depart="286" color="#F0E68C"/>
    <vehicle id="nw_287" type="typeN" route="north-west" depart="287" color="#2E8B57"/>
    <vehicle id="we_288" type="typeW" route="west-east" depart="288" color="#4169E1"/>
    <vehicle id="ws_289" type="typeW" route="west-south" depart="289" color="#F0E68C"/>
    <vehicle id="we_290" type="typeW" route="west-east" depart="290" color="#4169E1"/>
    <vehicle id="ws_291" type="typeW" route="west-south" depart="291" color="#F0E68C"/>
    <vehicle id="we_292" type="typeW" route="west-east" depart="292" color="#4169E1"/>
    <vehicle id="ws_293" type="typeW" route="west-south" depart="293" color="#F0E68C"/>
    <vehicle id="we_294" type="typeW" route="west-east" depart="294" color="#4169E1"/>
    <vehicle id="ws_295" type="typeW" route="west-south" depart="295" color="#F0E68C"/>
    <vehicle id="we_296" type="typeW" route="west-east" depart="296" color="#4169E1"/>
    <vehicle id="ws_297" type="typeW" route="west-south" depart="297" color="#F0E68C"/>
    <vehicle id="ns_298" type="typeN" route="north-south" depart="298" color="#F0E68C"/>
    <vehicle id="nw_299" type="typeN" route="north-west" depart="299" color="#2E8B57"/>
    <vehicle id="sn_300" type="typeS" route="south-north" depart="300" color="#800000"/>
    <vehicle id="se_301" type="typeS" route="south-east" depart="301" color="#4169E1"/>
    <vehicle id="ns_302" type="typeN" route="north-south" depart="302" color="#F0E68C"/>
    <vehicle id="nw_303" type="typeN" route="north-west" depart="303" color="#2E8B57"/>
    <vehicle id="we_304" type="typeW" route="west-east" depart="304" color="#4169E1"/>
    <vehicle id="ws_305" type="typeW" route="west-south" depart="305" color="#F0E68C"/>
    <vehicle id="we_306" type="typeW" route="west-east" depart="306" color="#4169E1"/>
    <vehicle id="ws_307" type="typeW" route="west-south" depart="307" color="#F0E68C"/>
    <vehicle id="we_308" type="typeW" route="west-east" depart="308" color="#4169E1"/>
    <vehicle id="ws_309" type="typeW" route="west-south" depart="309" color="#F0E68C"/>
    <vehicle id="en_310" type="typeE" route="east-north" depart="310" color="#800000"/>
    <vehicle id="ew_311" type="typeE" route="east-west" depart="311" color="#2E8B57"/>
    <vehicle id="we_312" type="typeW" route="west-east" depart="312" color="#4169E1"/>
    <vehicle id="ws_313" type="typeW" route="west-south" depart="313" color="#F0E68C"/>
    <vehicle id="en_314" type="typeE" route="east-north" depart="314" color="#800000"/>
    <vehicle id="ew_315" type="typeE" route="east-west" depart="315" color="#2E8B57"/>
    <vehicle id="en_316" type="typeE" route="east-north" depart="316" color="#800000"/>
    <vehicle id="ew_317" type="typeE" route="east-west" depart="317" color="#2E8B57"/>
    <vehicle id="sn_318" type="typeS" route="south-north" depart="318" color="#800000"/>
    <vehicle id="se_319" type="typeS" route="south-east" depart="319" color="#4169E1"/>
    <vehicle id="en_320" type="typeE" route="east-north" depart="320" color="#800000"/>
    <vehicle id="ew_321" type="typeE" route="east-west" depart="321" color="#2E8B57"/>
    <vehicle id="sn_322" type="typeS" route="south-north" depart="322" color="#800000"/>
    <vehicle id="se_323" type="typeS" route="south-east" depart="323" color="#4169E1"/>
    <vehicle id="sn_324" type="typeS" route="south-north" depart="324" color="#800000"/>
    <vehicle id="se_325" type="typeS" route="south-east" depart="325" color="#4169E1"/>
    <vehicle id="ns_326" type="typeN" route="north-south" depart="326" color="#F0E68C"/>
    <vehicle id="nw_327" type="typeN" route="north-west" depart="327" color="#2E8B57"/>
    <vehicle id="we_328" type="typeW" route="west-east" depart="328" color="#4169E1"/>
    <vehicle id="ws_329" type="typeW" route="west-south" depart="329" color="#F0E68C"/>
    <vehicle id="en_330" type="typeE" route="east-north" depart="330" color="#800000"/>
    <vehicle id="ew_331" type="typeE" route="east-west" depart="331" color="#2E8B57"/>
    <vehicle id="sn_332" type="typeS" route="south-north" depart="332" color="#800000"/>