<routes>

    <vType id="type0" accel="0.8" decel="4.5" sigma="0.2" length="5" minGap="2.5" maxSpeed="25" guiShape="passenger"/>
    <vType id="type1" accel="0.8" decel="4.5" sigma="0.2" length="5" minGap="2.5" maxSpeed="25" guiShape="passenger"/>
    <vType id="type4" accel="0.8" decel="4.5" sigma="0.2" length="5" minGap="2.5" maxSpeed="25" guiShape="passenger"/>
    <vType id="type9" accel="0.8" decel="4.5" sigma="0.2" length="5" minGap="2.5" maxSpeed="25" guiShape="passenger"/>
    <vType id="type10" accel="0.8" decel="4.5" sigma="0.2" length="5" minGap="2.5" maxSpeed="25" guiShape="passenger"/>
    <vType id="type15" accel="0.8" decel="4.5" sigma="0.2" length="5" minGap="2.5" maxSpeed="25" guiShape="passenger"/>
    <vType id="type18" accel="0.8" decel="4.5" sigma="0.2" length="5" minGap="2.5" maxSpeed="25" guiShape="passenger"/>
    <vType id="type19" accel="0.8" decel="4.5" sigma="0.2" length="5" minGap="2.5" maxSpeed="25" guiShape="passenger"/>

    <route id="0_4" edges="0-2 2-6 6-5 5-4" />
    <route id="0_10" edges="0-2 2-6 6-12 12-11 11-10" />
    <route id="0_18" edges="0-2 2-6 6-12 12-16 16-18" />

    <route id="4_10" edges="4-5 5-6 6-12 12-11 11-10" />
    <route id="4_18" edges="4-5 5-6 6-12 12-16 16-18" />
    <route id="4_19" edges="4-5 5-6 6-7 7-13 13-17 17-19" />
    <route id="4_9" edges="4-5 5-6 6-7 7-8 8-9" />

    <route id="10_18" edges="10-11 11-12 12-16 16-18" />
    <route id="10_19" edges="10-11 11-12 12-13 13-17 17-19" />
    <route id="10_15" edges="10-11 11-12 12-13 13-14 14-15" />

    <route id="18_0" edges="18-16 16-12 12-6 6-2 2-0" />
    <route id="18_19" edges="18-16 16-12 12-13 13-17 17-19" />
    <route id="18_15" edges="18-16 16-12 12-13 13-14 14-15" />
    <route id="18_9" edges="18-16 16-12 12-6 6-7 7-8 8-9" />

    <route id="19_15" edges="19-17 17-13 13-14 14-15" />
    <route id="19_9" edges="19-17 17-13 13-7 7-8 8-9" />
    <route id="19_1" edges="19-17 17-13 13-7 7-3 3-1" />

    <route id="15_0" edges="15-14 14-13 13-12 12-6 6-2 2-0" />
    <route id="15_10" edges="15-14 14-13 13-12 12-11 11-10" />
    <route id="15_9" edges="15-14 14-13 13-7 7-8 8-9" />
    <route id="15_1" edges="15-14 14-13 13-7 7-3 3-1" />

    <route id="9_0" edges="9-8 8-7 7-6 6-2 2-0" />
    <route id="9_4" edges="9-8 8-7 7-6 6-5 5-4" />
    <route id="9_1" edges="9-8 8-7 7-3 3-1" />

    <route id="1_0" edges="1-3 3-7 7-6 6-2 2-0" />
    <route id="1_4" edges="1-3 3-7 7-6 6-5 5-4" />
    <route id="1_10" edges="1-3 3-7 7-13 13-12 12-11 11-10" />
    <route id="1_19" edges="1-3 3-7 7-13 13-17 17-19" />
    
    <vehicle id="en_0" type="type4" route="0_4" depart="0"/>
    <vehicle id="en_1" type="type4" route="9_4" depart="0"/>
    <vehicle id="en_2" type="type4" route="1_4" depart="0"/>
    <vehicle id="en_3" type="type4" route="0_4" depart="1"/>
    <vehicle id="en_4" type="type4" route="9_4" depart="1"/>
    <vehicle id="en_5" type="type4" route="1_4" depart="1"/>
    <vehicle id="en_6" type="type19" route="10_19" depart="2"/>
    <vehicle id="en_7" type="type19" route="18_19" depart="2"/>
    <vehicle id="en_8" type="type19" route="1_19" depart="2"/>
    <vehicle id="en_9" type="type19" route="4_19" depart="2"/>
    <vehicle id="en_10" type="type18" route="0_18" depart="3"/>
    <vehicle id="en_11" type="type18" route="4_18" depart="3"/>
    <vehicle id="en_12" type="type18" route="10_18" depart="3"/>
    <vehicle id="en_13" type="type4" route="0_4" depart="4"/>
    <vehicle id="en_14" type="type4" route="9_4" depart="4"/>
    <vehicle id="en_15" type="type4" route="1_4" depart="4"/>
    <vehicle id="en_16" type="type18" route="0_18" depart="5"/>
    <vehicle id="en_17" type="type18" route="4_18" depart="5"/>
    <vehicle id="en_18" type="type18" route="10_18" depart="5"/>
    <vehicle id="en_19" type="type4" route="0_4" depart="6"/>
    <vehicle id="en_20" type="type4" route="9_4" depart="6"/>
    <vehicle id="en_21" type="type4" route="1_4" depart="6"/>
    <vehicle id="en_22" type="type19" route="10_19" depart="7"/>
    <vehicle id="en_23" type="type19" route="18_19" depart="7"/>
    <vehicle id="en_24" type="type19" route="1_19" depart="7"/>
    <vehicle id="en_25" type="type19" route="4_19" depart="7"/>
    <vehicle id="en_26" type="type19" route="10_19" depart="8"/>
    <vehicle id="en_27" type="type19" route="18_19" depart="8"/>
    <vehicle id="en_28" type="type19" route="1_19" depart="8"/>
    <vehicle id="en_29" type="type19" route="4_19" depart="8"/>
    <vehicle id="en_30" type="type9" route="19_9" depart="9"/>
    <vehicle id="en_31" type="type9" route="15_9" depart="9"/>
    <vehicle id="en_32" type="type9" route="4_9" depart="9"/>
    <vehicle id="en_33" type="type9" route="18_9" depart="9"/>
    <vehicle id="en_34" type="type15" route="10_15" depart="10"/>
    <vehicle id="en_35" type="type15" route="18_15" depart="10"/>
    <vehicle id="en_36" type="type15" route="19_15" depart="10"/>
    <vehicle id="en_37" type="type10" route="0_10" depart="11"/>
    <vehicle id="en_38" type="type10" route="4_10" depart="11"/>
    <vehicle id="en_39" type="type10" route="15_10" depart="11"/>
    <vehicle id="en_40" type="type10" route="1_10" depart="11"/>
    <vehicle id="en_41" type="type4" route="0_4" depart="12"/>
    <vehicle id="en_42" type="type4" route="9_4" depart="12"/>
    <vehicle id="en_43" type="type4" route="1_4" depart="12"/>
    <vehicle id="en_44" type="type19" route="10_19" depart="13"/>
    <vehicle id="en_45" type="type19" route="18_19" depart="13"/>
    <vehicle id="en_46" type="type19" route="1_19" depart="13"/>
    <vehicle id="en_47" type="type19" route="4_19" depart="13"/>
    <vehicle id="en_48" type="type9" route="19_9" depart="14"/>
    <vehicle id="en_49" type="type9" route="15_9" depart="14"/>
    <vehicle id="en_50" type="type9" route="4_9" depart="14"/>
    <vehicle id="en_51" type="type9" route="18_9" depart="14"/>
    <vehicle id="en_52" type="type0" route="18_0" depart="15"/>
    <vehicle id="en_53" type="type0" route="15_0" depart="15"/>
    <vehicle id="en_54" type="type0" route="9_0" depart="15"/>
    <vehicle id="en_55" type="type0" route="1_0" depart="15"/>
    <vehicle id="en_56" type="type10" route="0_10" depart="16"/>
    <vehicle id="en_57" type="type10" route="4_10" depart="16"/>
    <vehicle id="en_58" type="type10" route="15_10" depart="16"/>
    <vehicle id="en_59" type="type10" route="1_10" depart="16"/>
    <vehicle id="en_60" type="type1" route="19_1" depart="17"/>
    <vehicle id="en_61" type="type1" route="15_1" depart="17"/>
    <vehicle id="en_62" type="type1" route="9_1" depart="17"/>
    <vehicle id="en_63" type="type18" route="0_18" depart="18"/>
    <vehicle id="en_64" type="type18" route="4_18" depart="18"/>
    <vehicle id="en_65" type="type18" route="10_18" depart="18"/>
    <vehicle id="en_66" type="type4" route="0_4" depart="19"/>
    <vehicle id="en_67" type="type4" route="9_4" depart="19"/>
    <vehicle id="en_68" type="type4" route="1_4" depart="19"/>
    <vehicle id="en_69" type="type15" route="10_15" depart="20"/>
    <vehicle id="en_70" type="type15" route="18_15" depart="20"/>
    <vehicle id="en_71" type="type15" route="19_15" depart="20"/>
    <vehicle id="en_72" type="type15" route="10_15" depart="21"/>
    <vehicle id="en_73" type="type15" route="18_15" depart="21"/>
    <vehicle id="en_74" type="type15" route="19_15" depart="21"/>
    <vehicle id="en_75" type="type0" route="18_0" depart="22"/>
    <vehicle id="en_76" type="type0" route="15_0" depart="22"/>
    <vehicle id="en_77" type="type0" route="9_0" depart="22"/>
    <vehicle id="en_78" type="type0" route="1_0" depart="22"/>
    <vehicle id="en_79" type="type9" route="19_9" depart="23"/>
    <vehicle id="en_80" type="type9" route="15_9" depart="23"/>
    <vehicle id="en_81" type="type9" route="4_9" depart="23"/>
    <vehicle id="en_82" type="type9" route="18_9" depart="23"/>
    <vehicle id="en_83" type="type0" route="18_0" depart="24"/>
    <vehicle id="en_84" type="type0" route="15_0" depart="24"/>
    <vehicle id="en_85" type="type0" route="9_0" depart="24"/>
    <vehicle id="en_86" type="type0" route="1_0" depart="24"/>
    <vehicle id="en_87" type="type1" route="19_1" depart="25"/>
    <vehicle id="en_88" type="type1" route="15_1" depart="25"/>
    <vehicle id="en_89" type="type1" route="9_1" depart="25"/>
    <vehicle id="en_90" type="type15" route="10_15" depart="26"/>
    <vehicle id="en_91" type="type15" route="18_15" depart="26"/>
    <vehicle id="en_92" type="type15" route="19_15" depart="26"/>
    <vehicle id="en_93" type="type9" route="19_9" depart="27"/>
    <vehicle id="en_94" type="type9" route="15_9" depart="27"/>
    <vehicle id="en_95" type="type9" route="4_9" depart="27"/>
    <vehicle id="en_96" type="type9" route="18_9" depart="27"/>
    <vehicle id="en_97" type="type15" route="10_15" depart="28"/>
    <vehicle id="en_98" type="type15" route="18_15" depart="28"/>
    <vehicle id="en_99" type="type15" route="19_15" depart="28"/>
    <vehicle id="en_100" type="type19" route="10_19" depart="29"/>
    <vehicle id="en_101" type="type19" route="18_19" depart="29"/>
    <vehicle id="en_102" type="type19" route="1_19" depart="29"/>
    <vehicle id="en_103" type="type19" route="4_19" depart="29"/>
    <vehicle id="en_104" type="type4" route="0_4" depart="30"/>
    <vehicle id="en_105" type="type4" route="9_4" depart="30"/>
    <vehicle id="en_106" type="type4" route="1_4" depart="30"/>
    <vehicle id="en_107" type="type18" route="0_18" depart="31"/>
    <vehicle id="en_108" type="type18" route="4_18" depart="31"/>
    <vehicle id="en_109" type="type18" route="10_18" depart="31"/>
    <vehicle id="en_110" type="type10" route="0_10" depart="32"/>
    <vehicle id="en_111" type="type10" route="4_10" depart="32"/>
    <vehicle id="en_112" type="type10" route="15_10" depart="32"/>
    <vehicle id="en_113" type="type10" route="1_10" depart="32"/>
    <vehicle id="en_114" type="type19" route="10_19" depart="33"/>
    <vehicle id="en_115" type="type19" route="18_19" depart="33"/>
    <vehicle id="en_116" type="type19" route="1_19" depart="33"/>
    <vehicle id="en_117" type="type19" route="4_19" depart="33"/>
    <vehicle id="en_118" type="type9" route="19_9" depart="34"/>
    <vehicle id="en_119" type="type9" route="15_9" depart="34"/>
    <vehicle id="en_120" type="type9" route="4_9" depart="34"/>
    <vehicle id="en_121" type="type9" route="18_9" depart="34"/>
    <vehicle id="en_122" type="type18" route="0_18" depart="35"/>
    <vehicle id="en_123" type="type18" route="4_18" depart="35"/>
    <vehicle id="en_124" type="type18" route="10_18" depart="35"/>
    <vehicle id="en_125" type="type15" route="10_15" depart="36"/>
    <vehicle id="en_126" type="type15" route="18_15" depart="36"/>
    <vehicle id="en_127" type="type15" route="19_15" depart="36"/>
    <vehicle id="en_128" type="type10" route="0_10" depart="37"/>
    <vehicle id="en_129" type="type10" route="4_10" depart="37"/>
    <vehicle id="en_130" type="type10" route="15_10" depart="37"/>
    <vehicle id="en_131" type="type10" route="1_10" depart="37"/>
    <vehicle id="en_132" type="type4" route="0_4" depart="38"/>
    <vehicle id="en_133" type="type4" route="9_4" depart="38"/>
    <vehicle id="en_134" type="type4" route="1_4" depart="38"/>
    <vehicle id="en_135" type="type10" route="0_10" depart="39"/>
    <vehicle id="en_136" type="type10" route="4_10" depart="39"/>
    <vehicle id="en_137" type="type10" route="15_10" depart="39"/>
    <vehicle id="en_138" type="type10" route="1_10" depart="39"/>
    <vehicle id="en_139" type="type4" route="0_4" depart="40"/>
    <vehicle id="en_140" type="type4" route="9_4" depart="40"/>
    <vehicle id="en_141" type="type4" route="1_4" depart="40"/>
    <vehicle id="en_142" type="type15" route="10_15" depart="41"/>
    <vehicle id="en_143" type="type15" route="18_15" depart="41"/>
    <vehicle id="en_144" type="type15" route="19_15" depart="41"/>
    <vehicle id="en_145" type="type15" route="10_15" depart="42"/>
    <vehicle id="en_146" type="type15" route="18_15" depart="42"/>
    <vehicle id="en_147" type="type15" route="19_15" depart="42"/>
    <vehicle id="en_148" type="type18" route="0_18" depart="43"/>
    <vehicle id="en_149" type="type18" route="4_18" depart="43"/>
    <vehicle id="en_150" type="type18" route="10_18" depart="43"/>
    <vehicle id="en_151" type="type15" route="10_15" depart="44"/>
    <vehicle id="en_152" type="type15" route="18_15" depart="44"/>
    <vehicle id="en_153" type="type15" route="19_15" depart="44"/>
    <vehicle id="en_154" type="type0" route="18_0" depart="45"/>
    <vehicle id="en_155" type="type0" route="15_0" depart="45"/>
    <vehicle id="en_156" type="type0" route="9_0" depart="45"/>
    <vehicle id="en_157" type="type0" route="1_0" depart="45"/>
    <vehicle id="en_158" type="type9" route="19_9" depart="46"/>
    <vehicle id="en_159" type="type9" route="15_9" depart="46"/>
    <vehicle id="en_160" type="type9" route="4_9" depart="46"/>
    <vehicle id="en_161" type="type9" route="18_9" depart="46"/>
    <vehicle id="en_162" type="type4" route="0_4" depart="47"/>
    <vehicle id="en_163" type="type4" route="9_4" depart="47"/>
    <vehicle id="en_164" type="type4" route="1_4" depart="47"/>
    <vehicle id="en_165" type="type4" route="0_4" depart="48"/>
    <vehicle id="en_166" type="type4" route="9_4" depart="48"/>
    <vehicle id="en_167" type="type4" route="1_4" depart="48"/>
    <vehicle id="en_168" type="type15" route="10_15" depart="49"/>
    <vehicle id="en_169" type="type15" route="18_15" depart="49"/>
    <vehicle id="en_170" type="type15" route="19_15" depart="49"/>
    <vehicle id="en_171" type="type18" route="0_18" depart="50"/>
    <vehicle id="en_172" type="type18" route="4_18" depart="50"/>
    <vehicle id="en_173" type="type18" route="10_18" depart="50"/>
    <vehicle id="en_174" type="type1" route="19_1" depart="51"/>
    <vehicle id="en_175" type="type1" route="15_1" depart="51"/>
    <vehicle id="en_176" type="type1" route="9_1" depart="51"/>
    <vehicle id="en_177" type="type4" route="0_4" depart="52"/>
    <vehicle id="en_178" type="type4" route="9_4" depart="52"/>
    <vehicle id="en_179" type="type4" route="1_4" depart="52"/>
    <vehicle id="en_180" type="type0" route="18_0" depart="53"/>
    <vehicle id="en_181" type="type0" route="15_0" depart="53"/>
    <vehicle id="en_182" type="type0" route="9_0" depart="53"/>
    <vehicle id="en_183" type="type0" route="1_0" depart="53"/>
    <vehicle id="en_184" type="type15" route="10_15" depart="54"/>
    <vehicle id="en_185" type="type15" route="18_15" depart="54"/>
    <vehicle id="en_186" type="type15" route="19_15" depart="54"/>
    <vehicle id="en_187" type="type15" route="10_15" depart="55"/>
    <vehicle id="en_188" type="type15" route="18_15" depart="55"/>
    <vehicle id="en_189" type="type15" route="19_15" depart="55"/>
    <vehicle id="en_190" type="type4" route="0_4" depart="56"/>
    <vehicle id="en_191" type="type4" route="9_4" depart="56"/>
    <vehicle id="en_192" type="type4" route="1_4" depart="56"/>
    <vehicle id="en_193" type="type4" route="0_4" depart="57"/>
    <vehicle id="en_194" type="type4" route="9_4" depart="57"/>
    <vehicle id="en_195" type="type4" route="1_4" depart="57"/>
    <vehicle id="en_196" type="type19" route="10_19" depart="58"/>
    <vehicle id="en_197" type="type19" route="18_19" depart="58"/>
    <vehicle id="en_198" type="type19" route="1_19" depart="58"/>
    <vehicle id="en_199" type="type19" route="4_19" depart="58"/>
    <vehicle id="en_200" type="type0" route="18_0" depart="59"/>
    <vehicle id="en_201" type="type0" route="15_0" depart="59"/>
    <vehicle id="en_202" type="type0" route="9_0" depart="59"/>
    <vehicle id="en_203" type="type0" route="1_0" depart="59"/>
    <vehicle id="en_204" type="type4" route="0_4" depart="60"/>
    <vehicle id="en_205" type="type4" route="9_4" depart="60"/>
    <vehicle id="en_206" type="type4" route="1_4" depart="60"/>
    <vehicle id="en_207" type="type4" route="0_4" depart="61"/>
    <vehicle id="en_208" type="type4" route="9_4" depart="61"/>
    <vehicle id="en_209" type="type4" route="1_4" depart="61"/>
    <vehicle id="en_210" type="type1" route="19_1" depart="62"/>
    <vehicle id="en_211" type="type1" route="15_1" depart="62"/>
    <vehicle id="en_212" type="type1" route="9_1" depart="62"/>
    <vehicle id="en_213" type="type4" route="0_4" depart="63"/>
    <vehicle id="en_214" type="type4" route="9_4" depart="63"/>
    <vehicle id="en_215" type="type4" route="1_4" depart="63"/>
    <vehicle id="en_216" type="type1" route="19_1" depart="64"/>
    <vehicle id="en_217" type="type1" route="15_1" depart="64"/>
    <vehicle id="en_218" type="type1" route="9_1" depart="64"/>
    <vehicle id="en_219" type="type10" route="0_10" depart="65"/>
    <vehicle id="en_220" type="type10" route="4_10" depart="65"/>
    <vehicle id="en_221" type="type10" route="15_10" depart="65"/>
    <vehicle id="en_222" type="type10" route="1_10" depart="65"/>
    <vehicle id="en_223" type="type1" route="19_1" depart="66"/>
    <vehicle id="en_224" type="type1" route="15_1" depart="66"/>
    <vehicle id="en_225" type="type1" route="9_1" depart="66"/>
    <vehicle id="en_226" type="type19" route="10_19" depart="67"/>
    <vehicle id="en_227" type="type19" route="18_19" depart="67"/>
    <vehicle id="en_228" type="type19" route="1_19" depart="67"/>
    <vehicle id="en_229" type="type19" route="4_19" depart="67"/>
    <vehicle id="en_230" type="type10" route="0_10" depart="68"/>
    <vehicle id="en_231" type="type10" route="4_10" depart="68"/>
    <vehicle id="en_232" type="type10" route="15_10" depart="68"/>
    <vehicle id="en_233" type="type10" route="1_10" depart="68"/>
    <vehicle id="en_234" type="type18" route="0_18" depart="69"/>
    <vehicle id="en_235" type="type18" route="4_18" depart="69"/>
    <vehicle id="en_236" type="type18" route="10_18" depart="69"/>
    <vehicle id="en_237" type="type4" route="0_4" depart="70"/>
    <vehicle id="en_238" type="type4" route="9_4" depart="70"/>
    <vehicle id="en_239" type="type4" route="1_4" depart="70"/>
    <vehicle id="en_240" type="type10" route="0_10" depart="71"/>
    <vehicle id="en_241" type="type10" route="4_10" depart="71"/>
    <vehicle id="en_242" type="type10" route="15_10" depart="71"/>
    <vehicle id="en_243" type="type10" route="1_10" depart="71"/>
    <vehicle id="en_244" type="type10" route="0_10" depart="72"/>
    <vehicle id="en_245" type="type10" route="4_10" depart="72"/>
    <vehicle id="en_246" type="type10" route="15_10" depart="72"/>
    <vehicle id="en_247" type="type10" route="1_10" depart="72"/>
    <vehicle id="en_248" type="type15" route="10_15" depart="73"/>
    <vehicle id="en_249" type="type15" route="18_15" depart="73"/>
    <vehicle id="en_250" type="type15" route="19_15" depart="73"/>
    <vehicle id="en_251" type="type10" route="0_10" depart="74"/>
    <vehicle id="en_252" type="type10" route="4_10" depart="74"/>
    <vehicle id="en_253" type="type10" route="15_10" depart="74"/>
    <vehicle id="en_254" type="type10" route="1_10" depart="74"/>
    <vehicle id="en_255" type="type1" route="19_1" depart="75"/>
    <vehicle id="en_256" type="type1" route="15_1" depart="75"/>
    <vehicle id="en_257" type="type1" route="9_1" depart="75"/>
    <vehicle id="en_258" type="type0" route="18_0" depart="76"/>
    <vehicle id="en_259" type="type0" route="15_0" depart="76"/>
    <vehicle id="en_260" type="type0" route="9_0" depart="76"/>
    <vehicle id="en_261" type="type0" route="1_0" depart="76"/>
    <vehicle id="en_262" type="type0" route="18_0" depart="77"/>
    <vehicle id="en_263" type="type0" route="15_0" depart="77"/>
    <vehicle id="en_264" type="type0" route="9_0" depart="77"/>
    <vehicle id="en_265" type="type0" route="1_0" depart="77"/>
    <vehicle id="en_266" type="type10" route="0_10" depart="78"/>
    <vehicle id="en_267" type="type10" route="4_10" depart="78"/>
    <vehicle id="en_268" type="type10" route="15_10" depart="78"/>
    <vehicle id="en_269" type="type10" route="1_10" depart="78"/>
    <vehicle id="en_270" type="type9" route="19_9" depart="79"/>
    <vehicle id="en_271" type="type9" route="15_9" depart="79"/>
    <vehicle id="en_272" type="type9" route="4_9" depart="79"/>
    <vehicle id="en_273" type="type9" route="18_9" depart="79"/>
    <vehicle id="en_274" type="type4" route="0_4" depart="80"/>
    <vehicle id="en_275" type="type4" route="9_4" depart="80"/>
    <vehicle id="en_276" type="type4" route="1_4" depart="80"/>
    <vehicle id="en_277" type="type1" route="19_1" depart="81"/>
    <vehicle id="en_278" type="type1" route="15_1" depart="81"/>
    <vehicle id="en_279" type="type1" route="9_1" depart="81"/>
    <vehicle id="en_280" type="type19" route="10_19" depart="82"/>
    <vehicle id="en_281" type="type19" route="18_19" depart="82"/>
    <vehicle id="en_282" type="type19" route="1_19" depart="82"/>
    <vehicle id="en_283" type="type19" route="4_19" depart="82"/>
    <vehicle id="en_284" type="type4" route="0_4" depart="83"/>
    <vehicle id="en_285" type="type4" route="9_4" depart="83"/>
    <vehicle id="en_286" type="type4" route="1_4" depart="83"/>
    <vehicle id="en_287" type="type15" route="10_15" depart="84"/>
    <vehicle id="en_288" type="type15" route="18_15" depart="84"/>
    <vehicle id="en_289" type="type15" route="19_15" depart="84"/>
    <vehicle id="en_290" type="type9" route="19_9" depart="85"/>
    <vehicle id="en_291" type="type9" route="15_9" depart="85"/>
    <vehicle id="en_292" type="type9" route="4_9" depart="85"/>
    <vehicle id="en_293" type="type9" route="18_9" depart="85"/>
    <vehicle id="en_294" type="type18" route="0_18" depart="86"/>
    <vehicle id="en_295" type="type18" route="4_18" depart="86"/>
    <vehicle id="en_296" type="type18" route="10_18" depart="86"/>
    <vehicle id="en_297" type="type10" route="0_10" depart="87"/>
    <vehicle id="en_298" type="type10" route="4_10" depart="87"/>
    <vehicle id="en_299" type="type10" route="15_10" depart="87"/>
    <vehicle id="en_300" type="type10" route="1_10" depart="87"/>
    <vehicle id="en_301" type="type9" route="19_9" depart="88"/>
    <vehicle id="en_302" type="type9" route="15_9" depart="88"/>
    <vehicle id="en_303" type="type9" route="4_9" depart="88"/>
    <vehicle id="en_304" type="type9" route="18_9" depart="88"/>
    <vehicle id="en_305" type="type1" route="19_1" depart="89"/>
    <vehicle id="en_306" type="type1" route="15_1" depart="89"/>
    <vehicle id="en_307" type="type1" route="9_1" depart="89"/>
    <vehicle id="en_308" type="type10" route="0_10" depart="90"/>
    <vehicle id="en_309" type="type10" route="4_10" depart="90"/>
    <vehicle id="en_310" type="type10" route="15_10" depart="90"/>
    <vehicle id="en_311" type="type10" route="1_10" depart="90"/>
    <vehicle id="en_312" type="type15" route="10_15" depart="91"/>
    <vehicle id="en_313" type="type15" route="18_15" depart="91"/>
    <vehicle id="en_314" type="type15" route="19_15" depart="91"/>
    <vehicle id="en_315" type="type15" route="10_15" depart="92"/>
    <vehicle id="en_316" type="type15" route="18_15" depart="92"/>
    <vehicle id="en_317" type="type15" route="19_15" depart="92"/>
    <vehicle id="en_318" type="type19" route="10_19" depart="93"/>
    <vehicle id="en_319" type="type19" route="18_19" depart="93"/>
    <vehicle id="en_320" type="type19" route="1_19" depart="93"/>
    <vehicle id="en_321" type="type19" route="4_19" depart="93"/>
    <vehicle id="en_322" type="type1" route="19_1" depart="94"/>
    <vehicle id="en_323" type="type1" route="15_1" depart="94"/>
    <vehicle id="en_324" type="type1" route="9_1" depart="94"/>
    <vehicle id="en_325" type="type18" route="0_18" depart="95"/>
    <vehicle id="en_326" type="type18" route="4_18" depart="95"/>
    <vehicle id="en_327" type="type18" route="10_18" depart="95"/>
    <vehicle id="en_328" type="type0" route="18_0" depart="96"/>
    <vehicle id="en_329" type="type0" route="15_0" depart="96"/>
    <vehicle id="en_330" type="type0" route="9_0" depart="96"/>
    <vehicle id="en_331" type="type0" route="1_0" depart="96"/>
    <vehicle id="en_332" type="type18" route="0_18" depart="97"/>
    <vehicle id="en_333" type="type18" route="4_18" depart="97"/>
    <vehicle id="en_334" type="type18" route="10_18" depart="97"/>
    <vehicle id="en_335" type="type15" route="10_15" depart="98"/>
    <vehicle id="en_336" type="type15" route="18_15" depart="98"/>
    <vehicle id="en_337" type="type15" route="19_15" depart="98"/>
    <vehicle id="en_338" type="type1" route="19_1" depart="99"/>
    <vehicle id="en_339" type="type1" route="15_1" depart="99"/>
    <vehicle id="en_340" type="type1" route="9_1" depart="99"/>
    <vehicle id="en_341" type="type4" route="0_4" depart="100"/>
    <vehicle id="en_342" type="type4" route="9_4" depart="100"/>
    <vehicle id="en_343" type="type4" route="1_4" depart="100"/>
    <vehicle id="en_344" type="type1" route="19_1" depart="101"/>
    <vehicle id="en_345" type="type1" route="15_1" depart="101"/>
    <vehicle id="en_346" type="type1" route="9_1" depart="101"/>
    <vehicle id="en_347" type="type19" route="10_19" depart="102"/>
    <vehicle id="en_348" type="type19" route="18_19" depart="102"/>
    <vehicle id="en_349" type="type19" route="1_19" depart="102"/>
    <vehicle id="en_350" type="type19" route="4_19" depart="102"/>
    <vehicle id="en_351" type="type18" route="0_18" depart="103"/>
    <vehicle id="en_352" type="type18" route="4_18" depart="103"/>
    <vehicle id="en_353" type="type18" route="10_18" depart="103"/>
    <vehicle id="en_354" type="type1" route="19_1" depart="104"/>
    <vehicle id="en_355" type="type1" route="15_1" depart="104"/>
    <vehicle id="en_356" type="type1" route="9_1" depart="104"/>
    <vehicle id="en_357" type="type4" route="0_4" depart="105"/>
    <vehicle id="en_358" type="type4" route="9_4" depart="105"/>
    <vehicle id="en_359" type="type4" route="1_4" depart="105"/>
    <vehicle id="en_360" type="type4" route="0_4" depart="106"/>
    <vehicle id="en_361" type="type4" route="9_4" depart="106"/>
    <vehicle id="en_362" type="type4" route="1_4" depart="106"/>
    <vehicle id="en_363" type="type19" route="10_19" depart="107"/>
    <vehicle id="en_364" type="type19" route="18_19" depart="107"/>
    <vehicle id="en_365" type="type19" route="1_19" depart="107"/>
    <vehicle id="en_366" type="type19" route="4_19" depart="107"/>
    <vehicle id="en_367" type="type10" route="0_10" depart="108"/>
    <vehicle id="en_368" type="type10" route="4_10" depart="108"/>
    <vehicle id="en_369" type="type10" route="15_10" depart="108"/>
    <vehicle id="en_370" type="type10" route="1_10" depart="108"/>
    <vehicle id="en_371" type="type4" route="0_4" depart="109"/>
    <vehicle id="en_372" type="type4" route="9_4" depart="109"/>
    <vehicle id="en_373" type="type4" route="1_4" depart="109"/>
    <vehicle id="en_374" type="type15" route="10_15" depart="110"/>
    <vehicle id="en_375" type="type15" route="18_15" depart="110"/>
    <vehicle id="en_376" type="type15" route="19_15" depart="110"/>
    <vehicle id="en_377" type="type19" route="10_19" depart="111"/>
    <vehicle id="en_378" type="type19" route="18_19" depart="111"/>
    <vehicle id="en_379" type="type19" route="1_19" depart="111"/>
    <vehicle id="en_380" type="type19" route="4_19" depart="111"/>
    <vehicle id="en_381" type="type19" route="10_19" depart="112"/>
    <vehicle id="en_382" type="type19" route="18_19" depart="112"/>
    <vehicle id="en_383" type="type19" route="1_19" depart="112"/>
    <vehicle id="en_384" type="type19" route="4_19" depart="112"/>
    <vehicle id="en_385" type="type1" route="19_1" depart="113"/>
    <vehicle id="en_386" type="type1" route="15_1" depart="113"/>
    <vehicle id="en_387" type="type1" route="9_1" depart="113"/>
    <vehicle id="en_388" type="type9" route="19_9" depart="114"/>
    <vehicle id="en_389" type="type9" route="15_9" depart="114"/>
    <vehicle id="en_390" type="type9" route="4_9" depart="114"/>
    <vehicle id="en_391" type="type9" route="18_9" depart="114"/>
    <vehicle id="en_392" type="type18" route="0_18" depart="115"/>
    <vehicle id="en_393" type="type18" route="4_18" depart="115"/>
    <vehicle id="en_394" type="type18" route="10_18" depart="115"/>
    <vehicle id="en_395" type="type4" route="0_4" depart="116"/>
    <vehicle id="en_396" type="type4" route="9_4" depart="116"/>
    <vehicle id="en_397" type="type4" route="1_4" depart="116"/>
    <vehicle id="en_398" type="type18" route="0_18" depart="117"/>
    <vehicle id="en_399" type="type18" route="4_18" depart="117"/>
    <vehicle id="en_400" type="type18" route="10_18" depart="117"/>
    <vehicle id="en_401" type="type4" route="0_4" depart="118"/>
    <vehicle id="en_402" type="type4" route="9_4" depart="118"/>
    <vehicle id="en_403" type="type4" route="1_4" depart="118"/>
    <vehicle id="en_404" type="type15" route="10_15" depart="119"/>
    <vehicle id="en_405" type="type15" route="18_15" depart="119"/>
    <vehicle id="en_406" type="type15" route="19_15" depart="119"/>
    <vehicle id="en_407" type="type10" route="0_10" depart="120"/>
    <vehicle id="en_408" type="type10" route="4_10" depart="120"/>
    <vehicle id="en_409" type="type10" route="15_10" depart="120"/>
    <vehicle id="en_410" type="type10" route="1_10" depart="120"/>
    <vehicle id="en_411" type="type1" route="19_1" depart="121"/>
    <vehicle id="en_412" type="type1" route="15_1" depart="121"/>
    <vehicle id="en_413" type="type1" route="9_1" depart="121"/>
    <vehicle id="en_414" type="type19" route="10_19" depart="122"/>
    <vehicle id="en_415" type="type19" route="18_19" depart="122"/>
    <vehicle id="en_416" type="type19" route="1_19" depart="122"/>
    <vehicle id="en_417" type="type19" route="4_19" depart="122"/>
    <vehicle id="en_418" type="type1" route="19_1" depart="123"/>