<?xml version="1.0" encoding="UTF-8"?>

<!-- generated on Thursday 18 April 2019 12:08:40 AM IST by Eclipse SUMO netedit Version 1.1.0
<configuration xmlns:xsi="http://www.w3.org/2001/XMLSchema-instance" xsi:noNamespaceSchemaLocation="http://sumo.dlr.de/xsd/netconvertConfiguration.xsd">

    <input>
        <sumo-net-file value="data/2x2.net.xml"/>
    </input>

    <output>
        <output-file value="data/2x2.net.xml"/>
    </output>

    <processing>
        <geometry.max-grade.fix value="false"/>
        <offset.disable-normalization value="true"/>
        <lefthand value="false"/>
    </processing>

    <junctions>
        <no-turnarounds value="true"/>
        <junctions.corner-detail value="0"/>
        <junctions.limit-turn-speed value="-1"/>
        <rectangular-lane-cut value="false"/>
    </junctions>

    <pedestrian>
        <walkingareas value="false"/>
    </pedestrian>

</configuration>
-->

<net version="1.1" xmlns:xsi="http://www.w3.org/2001/XMLSchema-instance" xsi:noNamespaceSchemaLocation="http://sumo.dlr.de/xsd/net_file.xsd">

    <location netOffset="0.00,0.00" convBoundary="0.00,40.00,370.00,410.00" origBoundary="-10000000000.00,-10000000000.00,10000000000.00,10000000000.00" projParameter="!"/>

    <edge id=":0_0" function="internal">
        <lane id=":0_0_0" index="0" speed="13.89" length="4.67" shape="111.60,410.00 110.80,411.20 110.00,411.60 109.20,411.20 108.40,410.00"/>
    </edge>
    <edge id=":1_0" function="internal">
        <lane id=":1_0_0" index="0" speed="13.89" length="4.67" shape="261.60,410.00 260.80,411.20 260.00,411.60 259.20,411.20 258.40,410.00"/>
    </edge>
    <edge id=":10_0" function="internal">
        <lane id=":10_0_0" index="0" speed="13.89" length="4.67" shape="0.00,151.60 -1.20,150.80 -1.60,150.00 -1.20,149.20 0.00,148.40"/>
    </edge>
    <edge id=":11_0" function="internal">
        <lane id=":11_0_0" index="0" speed="13.89" length="0.10" shape="10.00,151.60 10.00,151.60"/>
    </edge>
    <edge id=":11_1" function="internal">
        <lane id=":11_1_0" index="0" speed="13.89" length="2.34" shape="10.00,151.60 8.80,150.80 8.40,150.00"/>
    </edge>
    <edge id=":11_4" function="internal">
        <lane id=":11_4_0" index="0" speed="13.89" length="2.34" shape="8.40,150.00 8.80,149.20 10.00,148.40"/>
    </edge>
    <edge id=":11_2" function="internal">
        <lane id=":11_2_0" index="0" speed="13.89" length="0.10" shape="10.00,148.40 10.00,148.40"/>
    </edge>
    <edge id=":11_3" function="internal">
        <lane id=":11_3_0" index="0" speed="13.89" length="2.34" shape="10.00,148.40 11.20,149.20 11.60,150.00"/>
    </edge>
    <edge id=":11_5" function="internal">
        <lane id=":11_5_0" index="0" speed="13.89" length="2.34" shape="11.60,150.00 11.20,150.80 10.00,151.60"/>
    </edge>
    <edge id=":12_0" function="internal">
        <lane id=":12_0_0" index="0" speed="13.89" length="9.03" shape="108.40,157.20 108.05,154.75 107.00,153.00 105.25,151.95 102.80,151.60"/>
    </edge>
    <edge id=":12_1" function="internal">
        <lane id=":12_1_0" index="0" speed="13.89" length="14.40" shape="108.40,157.20 108.40,142.80"/>
    </edge>
    <edge id=":12_2" function="internal">
        <lane id=":12_2_0" index="0" speed="13.89" length="9.03" shape="117.20,151.60 114.75,151.95 113.00,153.00 111.95,154.75 111.60,157.20"/>
    </edge>
    <edge id=":12_3" function="internal">
        <lane id=":12_3_0" index="0" speed="13.89" length="14.40" shape="117.20,151.60 102.80,151.60"/>
    </edge>
    <edge id=":12_4" function="internal">
        <lane id=":12_4_0" index="0" speed="13.89" length="9.03" shape="111.60,142.80 111.95,145.25 113.00,147.00 114.75,148.05 117.20,148.40"/>
    </edge>
    <edge id=":12_5" function="internal">
        <lane id=":12_5_0" index="0" speed="13.89" length="14.40" shape="111.60,142.80 111.60,157.20"/>
    </edge>
    <edge id=":12_6" function="internal">
        <lane id=":12_6_0" index="0" speed="13.89" length="9.03" shape="102.80,148.40 105.25,148.05 107.00,147.00 108.05,145.25 108.40,142.80"/>
    </edge>
    <edge id=":12_7" function="internal">
        <lane id=":12_7_0" index="0" speed="13.89" length="14.40" shape="102.80,148.40 117.20,148.40"/>
    </edge>
    <edge id=":13_0" function="internal">
        <lane id=":13_0_0" index="0" speed="13.89" length="9.03" shape="258.40,157.20 258.05,154.75 257.00,153.00 255.25,151.95 252.80,151.60"/>
    </edge>
    <edge id=":13_1" function="internal">
        <lane id=":13_1_0" index="0" speed="13.89" length="14.40" shape="258.40,157.20 258.40,142.80"/>
    </edge>
    <edge id=":13_2" function="internal">
        <lane id=":13_2_0" index="0" speed="13.89" length="9.03" shape="267.20,151.60 264.75,151.95 263.00,153.00 261.95,154.75 261.60,157.20"/>
    </edge>
    <edge id=":13_3" function="internal">
        <lane id=":13_3_0" index="0" speed="13.89" length="14.40" shape="267.20,151.60 252.80,151.60"/>
    </edge>
    <edge id=":13_4" function="internal">
        <lane id=":13_4_0" index="0" speed="13.89" length="9.03" shape="261.60,142.80 261.95,145.25 263.00,147.00 264.75,148.05 267.20,148.40"/>
    </edge>
    <edge id=":13_5" function="internal">
        <lane id=":13_5_0" index="0" speed="13.89" length="14.40" shape="261.60,142.80 261.60,157.20"/>
    </edge>
    <edge id=":13_6" function="internal">
        <lane id=":13_6_0" index="0" speed="13.89" length="9.03" shape="252.80,148.40 255.25,148.05 257.00,147.00 258.05,145.25 258.40,142.80"/>
    </edge>
    <edge id=":13_7" function="internal">
        <lane id=":13_7_0" index="0" speed="13.89" length="14.40" shape="252.80,148.40 267.20,148.40"/>
    </edge>
    <edge id=":14_0" function="internal">
        <lane id=":14_0_0" index="0" speed="13.89" length="0.10" shape="360.00,151.60 360.00,151.60"/>
    </edge>
    <edge id=":14_1" function="internal">
        <lane id=":14_1_0" index="0" speed="13.89" length="2.34" shape="360.00,151.60 358.80,150.80 358.40,150.00"/>
    </edge>
    <edge id=":14_4" function="internal">
        <lane id=":14_4_0" index="0" speed="13.89" length="2.34" shape="358.40,150.00 358.80,149.20 360.00,148.40"/>
    </edge>
    <edge id=":14_2" function="internal">
        <lane id=":14_2_0" index="0" speed="13.89" length="0.10" shape="360.00,148.40 360.00,148.40"/>
    </edge>
    <edge id=":14_3" function="internal">
        <lane id=":14_3_0" index="0" speed="13.89" length="2.34" shape="360.00,148.40 361.20,149.20 361.60,150.00"/>
    </edge>
    <edge id=":14_5" function="internal">
        <lane id=":14_5_0" index="0" speed="13.89" length="2.34" shape="361.60,150.00 361.20,150.80 360.00,151.60"/>
    </edge>
    <edge id=":15_0" function="internal">
        <lane id=":15_0_0" index="0" speed="13.89" length="4.67" shape="370.00,148.40 371.20,149.20 371.60,150.00 371.20,150.80 370.00,151.60"/>
    </edge>
    <edge id=":16_0" function="internal">
        <lane id=":16_0_0" index="0" speed="13.89" length="0.10" shape="108.40,50.00 108.40,50.00"/>
    </edge>
    <edge id=":16_1" function="internal">
        <lane id=":16_1_0" index="0" speed="13.89" length="2.34" shape="108.40,50.00 109.20,48.80 110.00,48.40"/>
    </edge>
    <edge id=":16_4" function="internal">
        <lane id=":16_4_0" index="0" speed="13.89" length="2.34" shape="110.00,48.40 110.80,48.80 111.60,50.00"/>
    </edge>
    <edge id=":16_2" function="internal">
        <lane id=":16_2_0" index="0" speed="13.89" length="0.10" shape="111.60,50.00 111.60,50.00"/>
    </edge>
    <edge id=":16_3" function="internal">
        <lane id=":16_3_0" index="0" speed="13.89" length="2.34" shape="111.60,50.00 110.80,51.20 110.00,51.60"/>
    </edge>
    <edge id=":16_5" function="internal">
        <lane id=":16_5_0" index="0" speed="13.89" length="2.34" shape="110.00,51.60 109.20,51.20 108.40,50.00"/>
    </edge>
    <edge id=":17_0" function="internal">
        <lane id=":17_0_0" index="0" speed="13.89" length="0.10" shape="258.40,50.00 258.40,50.00"/>
    </edge>
    <edge id=":17_1" function="internal">
        <lane id=":17_1_0" index="0" speed="13.89" length="2.34" shape="258.40,50.00 259.20,48.80 260.00,48.40"/>
    </edge>
    <edge id=":17_4" function="internal">
        <lane id=":17_4_0" index="0" speed="13.89" length="2.34" shape="260.00,48.40 260.80,48.80 261.60,50.00"/>
    </edge>
    <edge id=":17_2" function="internal">
        <lane id=":17_2_0" index="0" speed="13.89" length="0.10" shape="261.60,50.00 261.60,50.00"/>
    </edge>
    <edge id=":17_3" function="internal">
        <lane id=":17_3_0" index="0" speed="13.89" length="2.34" shape="261.60,50.00 260.80,51.20 260.00,51.60"/>
    </edge>
    <edge id=":17_5" function="internal">
        <lane id=":17_5_0" index="0" speed="13.89" length="2.34" shape="260.00,51.60 259.20,51.20 258.40,50.00"/>
    </edge>
    <edge id=":18_0" function="internal">
        <lane id=":18_0_0" index="0" speed="13.89" length="4.67" shape="108.40,40.00 109.20,38.80 110.00,38.40 110.80,38.80 111.60,40.00"/>
    </edge>
    <edge id=":19_0" function="internal">
        <lane id=":19_0_0" index="0" speed="13.89" length="4.67" shape="258.40,40.00 259.20,38.80 260.00,38.40 260.80,38.80 261.60,40.00"/>
    </edge>
    <edge id=":2_0" function="internal">
        <lane id=":2_0_0" index="0" speed="13.89" length="0.10" shape="108.40,400.00 108.40,400.00"/>
    </edge>
    <edge id=":2_1" function="internal">
        <lane id=":2_1_0" index="0" speed="13.89" length="2.34" shape="108.40,400.00 109.20,398.80 110.00,398.40"/>
    </edge>
    <edge id=":2_4" function="internal">
        <lane id=":2_4_0" index="0" speed="13.89" length="2.34" shape="110.00,398.40 110.80,398.80 111.60,400.00"/>
    </edge>
    <edge id=":2_2" function="internal">
        <lane id=":2_2_0" index="0" speed="13.89" length="0.10" shape="111.60,400.00 111.60,400.00"/>
    </edge>
    <edge id=":2_3" function="internal">
        <lane id=":2_3_0" index="0" speed="13.89" length="2.34" shape="111.60,400.00 110.80,401.20 110.00,401.60"/>
    </edge>
    <edge id=":2_5" function="internal">
        <lane id=":2_5_0" index="0" speed="13.89" length="2.34" shape="110.00,401.60 109.20,401.20 108.40,400.00"/>
    </edge>
    <edge id=":3_0" function="internal">
        <lane id=":3_0_0" index="0" speed="13.89" length="0.10" shape="258.40,400.00 258.40,400.00"/>
    </edge>
    <edge id=":3_1" function="internal">
        <lane id=":3_1_0" index="0" speed="13.89" length="2.34" shape="258.40,400.00 259.20,398.80 260.00,398.40"/>
    </edge>
    <edge id=":3_4" function="internal">
        <lane id=":3_4_0" index="0" speed="13.89" length="2.34" shape="260.00,398.40 260.80,398.80 261.60,400.00"/>
    </edge>
    <edge id=":3_2" function="internal">
        <lane id=":3_2_0" index="0" speed="13.89" length="0.10" shape="261.60,400.00 261.60,400.00"/>
    </edge>
    <edge id=":3_3" function="internal">
        <lane id=":3_3_0" index="0" speed="13.89" length="2.34" shape="261.60,400.00 260.80,401.20 260.00,401.60"/>
    </edge>
    <edge id=":3_5" function="internal">
        <lane id=":3_5_0" index="0" speed="13.89" length="2.34" shape="260.00,401.60 259.20,401.20 258.40,400.00"/>
    </edge>
    <edge id=":4_0" function="internal">
        <lane id=":4_0_0" index="0" speed="13.89" length="4.67" shape="0.00,301.60 -1.20,300.80 -1.60,300.00 -1.20,299.20 0.00,298.40"/>
    </edge>
    <edge id=":5_0" function="internal">
        <lane id=":5_0_0" index="0" speed="13.89" length="0.10" shape="10.00,301.60 10.00,301.60"/>
    </edge>
    <edge id=":5_1" function="internal">
        <lane id=":5_1_0" index="0" speed="13.89" length="2.34" shape="10.00,301.60 8.80,300.80 8.40,300.00"/>
    </edge>
    <edge id=":5_4" function="internal">
        <lane id=":5_4_0" index="0" speed="13.89" length="2.34" shape="8.40,300.00 8.80,299.20 10.00,298.40"/>
    </edge>
    <edge id=":5_2" function="internal">
        <lane id=":5_2_0" index="0" speed="13.89" length="0.10" shape="10.00,298.40 10.00,298.40"/>
    </edge>
    <edge id=":5_3" function="internal">
        <lane id=":5_3_0" index="0" speed="13.89" length="2.34" shape="10.00,298.40 11.20,299.20 11.60,300.00"/>
    </edge>
    <edge id=":5_5" function="internal">
        <lane id=":5_5_0" index="0" speed="13.89" length="2.34" shape="11.60,300.00 11.20,300.80 10.00,301.60"/>
    </edge>
    <edge id=":6_0" function="internal">
        <lane id=":6_0_0" index="0" speed="13.89" length="9.03" shape="108.40,307.20 108.05,304.75 107.00,303.00 105.25,301.95 102.80,301.60"/>
    </edge>
    <edge id=":6_1" function="internal">
        <lane id=":6_1_0" index="0" speed="13.89" length="14.40" shape="108.40,307.20 108.40,292.80"/>
    </edge>
    <edge id=":6_2" function="internal">
        <lane id=":6_2_0" index="0" speed="13.89" length="9.03" shape="117.20,301.60 114.75,301.95 113.00,303.00 111.95,304.75 111.60,307.20"/>
    </edge>
    <edge id=":6_3" function="internal">
        <lane id=":6_3_0" index="0" speed="13.89" length="14.40" shape="117.20,301.60 102.80,301.60"/>
    </edge>
    <edge id=":6_4" function="internal">
        <lane id=":6_4_0" index="0" speed="13.89" length="9.03" shape="111.60,292.80 111.95,295.25 113.00,297.00 114.75,298.05 117.20,298.40"/>
    </edge>
    <edge id=":6_5" function="internal">
        <lane id=":6_5_0" index="0" speed="13.89" length="14.40" shape="111.60,292.80 111.60,307.20"/>
    </edge>
    <edge id=":6_6" function="internal">
        <lane id=":6_6_0" index="0" speed="13.89" length="9.03" shape="102.80,298.40 105.25,298.05 107.00,297.00 108.05,295.25 108.40,292.80"/>
    </edge>
    <edge id=":6_7" function="internal">
        <lane id=":6_7_0" index="0" speed="13.89" length="14.40" shape="102.80,298.40 117.20,298.40"/>
    </edge>
    <edge id=":7_0" function="internal">
        <lane id=":7_0_0" index="0" speed="13.89" length="9.03" shape="258.40,307.20 258.05,304.75 257.00,303.00 255.25,301.95 252.80,301.60"/>
    </edge>
    <edge id=":7_1" function="internal">
        <lane id=":7_1_0" index="0" speed="13.89" length="14.40" shape="258.40,307.20 258.40,292.80"/>
    </edge>
    <edge id=":7_2" function="internal">
        <lane id=":7_2_0" index="0" speed="13.89" length="9.03" shape="267.20,301.60 264.75,301.95 263.00,303.00 261.95,304.75 261.60,307.20"/>
    </edge>
    <edge id=":7_3" function="internal">
        <lane id=":7_3_0" index="0" speed="13.89" length="14.40" shape="267.20,301.60 252.80,301.60"/>
    </edge>
    <edge id=":7_4" function="internal">
        <lane id=":7_4_0" index="0" speed="13.89" length="9.03" shape="261.60,292.80 261.95,295.25 263.00,297.00 264.75,298.05 267.20,298.40"/>
    </edge>
    <edge id=":7_5" function="internal">
        <lane id=":7_5_0" index="0" speed="13.89" length="14.40" shape="261.60,292.80 261.60,307.20"/>
    </edge>
    <edge id=":7_6" function="internal">
        <lane id=":7_6_0" index="0" speed="13.89" length="9.03" shape="252.80,298.40 255.25,298.05 257.00,297.00 258.05,295.25 258.40,292.80"/>
    </edge>
    <edge id=":7_7" function="internal">
        <lane id=":7_7_0" index="0" speed="13.89" length="14.40" shape="252.80,298.40 267.20,298.40"/>
    </edge>
    <edge id=":8_0" function="internal">
        <lane id=":8_0_0" index="0" speed="13.89" length="0.10" shape="360.00,301.60 360.00,301.60"/>
    </edge>
    <edge id=":8_1" function="internal">
        <lane id=":8_1_0" index="0" speed="13.89" length="2.34" shape="360.00,301.60 358.80,300.80 358.40,300.00"/>
    </edge>
    <edge id=":8_4" function="internal">
        <lane id=":8_4_0" index="0" speed="13.89" length="2.34" shape="358.40,300.00 358.80,299.20 360.00,298.40"/>
    </edge>
    <edge id=":8_2" function="internal">
        <lane id=":8_2_0" index="0" speed="13.89" length="0.10" shape="360.00,298.40 360.00,298.40"/>
    </edge>
    <edge id=":8_3" function="internal">
        <lane id=":8_3_0" index="0" speed="13.89" length="2.34" shape="360.00,298.40 361.20,299.20 361.60,300.00"/>
    </edge>
    <edge id=":8_5" function="internal">
        <lane id=":8_5_0" index="0" speed="13.89" length="2.34" shape="361.60,300.00 361.20,300.80 360.00,301.60"/>
    </edge>
    <edge id=":9_0" function="internal">
        <lane id=":9_0_0" index="0" speed="13.89" length="4.67" shape="370.00,298.40 371.20,299.20 371.60,300.00 371.20,300.80 370.00,301.60"/>
    </edge>

    <edge id="0-2" from="0" to="2" priority="-1">
        <lane id="0-2_0" index="0" speed="13.89" length="10.00" shape="108.40,410.00 108.40,400.00"/>
    </edge>
    <edge id="1-3" from="1" to="3" priority="-1">
        <lane id="1-3_0" index="0" speed="13.89" length="10.00" shape="258.40,410.00 258.40,400.00"/>
    </edge>
    <edge id="10-11" from="10" to="11" priority="-1">
        <lane id="10-11_0" index="0" speed="13.89" length="10.00" shape="0.00,148.40 10.00,148.40"/>
    </edge>
    <edge id="11-10" from="11" to="10" priority="-1">
        <lane id="11-10_0" index="0" speed="13.89" length="10.00" shape="10.00,151.60 0.00,151.60"/>
    </edge>
    <edge id="11-12" from="11" to="12" priority="-1">
        <lane id="11-12_0" index="0" speed="13.89" length="92.80" shape="10.00,148.40 102.80,148.40"/>
    </edge>
    <edge id="12-11" from="12" to="11" priority="-1">
        <lane id="12-11_0" index="0" speed="13.89" length="92.80" shape="102.80,151.60 10.00,151.60"/>
    </edge>
    <edge id="12-13" from="12" to="13" priority="-1">
        <lane id="12-13_0" index="0" speed="13.89" length="135.60" shape="117.20,148.40 252.80,148.40"/>
    </edge>
    <edge id="12-16" from="12" to="16" priority="-1">
        <lane id="12-16_0" index="0" speed="13.89" length="92.80" shape="108.40,142.80 108.40,50.00"/>
    </edge>
    <edge id="12-6" from="12" to="6" priority="-1">
        <lane id="12-6_0" index="0" speed="13.89" length="135.60" shape="111.60,157.20 111.60,292.80"/>
    </edge>
    <edge id="13-12" from="13" to="12" priority="-1">
        <lane id="13-12_0" index="0" speed="13.89" length="135.60" shape="252.80,151.60 117.20,151.60"/>
    </edge>
    <edge id="13-14" from="13" to="14" priority="-1">
        <lane id="13-14_0" index="0" speed="13.89" length="92.80" shape="267.20,148.40 360.00,148.40"/>
    </edge>
    <edge id="13-17" from="13" to="17" priority="-1">
        <lane id="13-17_0" index="0" speed="13.89" length="92.80" shape="258.40,142.80 258.40,50.00"/>
    </edge>
    <edge id="13-7" from="13" to="7" priority="-1">
        <lane id="13-7_0" index="0" speed="13.89" length="135.60" shape="261.60,157.20 261.60,292.80"/>
    </edge>
    <edge id="14-13" from="14" to="13" priority="-1">
        <lane id="14-13_0" index="0" speed="13.89" length="92.80" shape="360.00,151.60 267.20,151.60"/>
    </edge>
    <edge id="14-15" from="14" to="15" priority="-1">
        <lane id="14-15_0" index="0" speed="13.89" length="10.00" shape="360.00,148.40 370.00,148.40"/>
    </edge>
    <edge id="15-14" from="15" to="14" priority="-1">
        <lane id="15-14_0" index="0" speed="13.89" length="10.00" shape="370.00,151.60 360.00,151.60"/>
    </edge>
    <edge id="16-12" from="16" to="12" priority="-1">
        <lane id="16-12_0" index="0" speed="13.89" length="92.80" shape="111.60,50.00 111.60,142.80"/>
    </edge>
    <edge id="16-18" from="16" to="18" priority="-1">
        <lane id="16-18_0" index="0" speed="13.89" length="10.00" shape="108.40,50.00 108.40,40.00"/>
    </edge>
    <edge id="17-13" from="17" to="13" priority="-1">
        <lane id="17-13_0" index="0" speed="13.89" length="92.80" shape="261.60,50.00 261.60,142.80"/>
    </edge>
    <edge id="17-19" from="17" to="19" priority="-1">
        <lane id="17-19_0" index="0" speed="13.89" length="10.00" shape="258.40,50.00 258.40,40.00"/>
    </edge>
    <edge id="18-16" from="18" to="16" priority="-1">
        <lane id="18-16_0" index="0" speed="13.89" length="10.00" shape="111.60,40.00 111.60,50.00"/>
    </edge>
    <edge id="19-17" from="19" to="17" priority="-1">
        <lane id="19-17_0" index="0" speed="13.89" length="10.00" shape="261.60,40.00 261.60,50.00"/>
    </edge>
    <edge id="2-0" from="2" to="0" priority="-1">
        <lane id="2-0_0" index="0" speed="13.89" length="10.00" shape="111.60,400.00 111.60,410.00"/>
    </edge>
    <edge id="2-6" from="2" to="6" priority="-1">
        <lane id="2-6_0" index="0" speed="13.89" length="92.80" shape="108.40,400.00 108.40,307.20"/>
    </edge>
    <edge id="3-1" from="3" to="1" priority="-1">
        <lane id="3-1_0" index="0" speed="13.89" length="10.00" shape="261.60,400.00 261.60,410.00"/>
    </edge>
    <edge id="3-7" from="3" to="7" priority="-1">
        <lane id="3-7_0" index="0" speed="13.89" length="92.80" shape="258.40,400.00 258.40,307.20"/>
    </edge>
    <edge id="4-5" from="4" to="5" priority="-1">
        <lane id="4-5_0" index="0" speed="13.89" length="10.00" shape="0.00,298.40 10.00,298.40"/>
    </edge>
    <edge id="5-4" from="5" to="4" priority="-1">
        <lane id="5-4_0" index="0" speed="13.89" length="10.00" shape="10.00,301.60 0.00,301.60"/>
    </edge>
    <edge id="5-6" from="5" to="6" priority="-1">
        <lane id="5-6_0" index="0" speed="13.89" length="92.80" shape="10.00,298.40 102.80,298.40"/>
    </edge>
    <edge id="6-12" from="6" to="12" priority="-1">
        <lane id="6-12_0" index="0" speed="13.89" length="135.60" shape="108.40,292.80 108.40,157.20"/>
    </edge>
    <edge id="6-2" from="6" to="2" priority="-1">
        <lane id="6-2_0" index="0" speed="13.89" length="92.80" shape="111.60,307.20 111.60,400.00"/>
    </edge>
    <edge id="6-5" from="6" to="5" priority="-1">
        <lane id="6-5_0" index="0" speed="13.89" length="92.80" shape="102.80,301.60 10.00,301.60"/>
    </edge>
    <edge id="6-7" from="6" to="7" priority="-1">
        <lane id="6-7_0" index="0" speed="13.89" length="135.60" shape="117.20,298.40 252.80,298.40"/>
    </edge>
    <edge id="7-13" from="7" to="13" priority="-1">
        <lane id="7-13_0" index="0" speed="13.89" length="135.60" shape="258.40,292.80 258.40,157.20"/>
    </edge>
    <edge id="7-3" from="7" to="3" priority="-1">
        <lane id="7-3_0" index="0" speed="13.89" length="92.80" shape="261.60,307.20 261.60,400.00"/>
    </edge>
    <edge id="7-6" from="7" to="6" priority="-1">
        <lane id="7-6_0" index="0" speed="13.89" length="135.60" shape="252.80,301.60 117.20,301.60"/>
    </edge>
    <edge id="7-8" from="7" to="8" priority="-1">
        <lane id="7-8_0" index="0" speed="13.89" length="92.80" shape="267.20,298.40 360.00,298.40"/>
    </edge>
    <edge id="8-7" from="8" to="7" priority="-1">
        <lane id="8-7_0" index="0" speed="13.89" length="92.80" shape="360.00,301.60 267.20,301.60"/>
    </edge>
    <edge id="8-9" from="8" to="9" priority="-1">
        <lane id="8-9_0" index="0" speed="13.89" length="10.00" shape="360.00,298.40 370.00,298.40"/>
    </edge>
    <edge id="9-8" from="9" to="8" priority="-1">
        <lane id="9-8_0" index="0" speed="13.89" length="10.00" shape="370.00,301.60 360.00,301.60"/>
    </edge>

    <tlLogic id="12" type="static" programID="0" offset="0">
        <phase duration="42" state="GGrrGGrr"/>
        <phase duration="3"  state="yyrryyrr"/>
        <phase duration="42" state="rrGGrrGG"/>
        <phase duration="3"  state="rryyrryy"/>
    </tlLogic>
    <tlLogic id="13" type="static" programID="0" offset="0">
        <phase duration="42" state="rrGGrrGG"/>
        <phase duration="3"  state="rryyrryy"/>
        <phase duration="42" state="GGrrGGrr"/>
        <phase duration="3"  state="yyrryyrr"/>
    </tlLogic>
    <tlLogic id="6" type="static" programID="0" offset="0">
        <phase duration="42" state="rrGGrrGG"/>
        <phase duration="3"  state="rryyrryy"/>
        <phase duration="42" state="GGrrGGrr"/>
        <phase duration="3"  state="yyrryyrr"/>
    </tlLogic>
    <tlLogic id="7" type="static" programID="0" offset="0">
        <phase duration="42" state="GGrrGGrr"/>
        <phase duration="3"  state="yyrryyrr"/>
        <phase duration="42" state="rrGGrrGG"/>
        <phase duration="3"  state="rryyrryy"/>
    </tlLogic>

    <junction id="0" type="priority" x="110.00" y="410.00" incLanes="2-0_0" intLanes=":0_0_0" shape="110.00,410.00 113.20,410.00 110.00,410.00">
        <request index="0" response="0" foes="0" cont="0"/>
    </junction>
    <junction id="1" type="priority" x="260.00" y="410.00" incLanes="3-1_0" intLanes=":1_0_0" shape="260.00,410.00 263.20,410.00 260.00,410.00">
        <request index="0" response="0" foes="0" cont="0"/>
    </junction>
    <junction id="10" type="priority" x="0.00" y="150.00" incLanes="11-10_0" intLanes=":10_0_0" shape="0.00,150.00 0.00,153.20 0.00,150.00">
        <request index="0" response="0" foes="0" cont="0"/>
    </junction>
    <junction id="11" type="priority" x="10.00" y="150.00" incLanes="12-11_0 10-11_0" intLanes=":11_0_0 :11_4_0 :11_2_0 :11_5_0" shape="10.00,153.20 10.00,146.80 10.00,153.20">
        <request index="0" response="0000" foes="1000" cont="0"/>
        <request index="1" response="0100" foes="0100" cont="1"/>
        <request index="2" response="0000" foes="0010" cont="0"/>
        <request index="3" response="0001" foes="0001" cont="1"/>
    </junction>
    <junction id="12" type="traffic_light" x="110.00" y="150.00" incLanes="6-12_0 13-12_0 16-12_0 11-12_0" intLanes=":12_0_0 :12_1_0 :12_2_0 :12_3_0 :12_4_0 :12_5_0 :12_6_0 :12_7_0" shape="106.80,157.20 113.20,157.20 117.20,153.20 117.20,146.80 113.20,142.80 106.80,142.80 102.80,146.80 102.80,153.20">
        <request index="0" response="00000000" foes="00001000" cont="0"/>
        <request index="1" response="00000000" foes="11001000" cont="0"/>
        <request index="2" response="00100000" foes="00100000" cont="0"/>
        <request index="3" response="00100011" foes="00100011" cont="0"/>
        <request index="4" response="00000000" foes="10000000" cont="0"/>
        <request index="5" response="00000000" foes="10001100" cont="0"/>
        <request index="6" response="00000010" foes="00000010" cont="0"/>
        <request index="7" response="00110010" foes="00110010" cont="0"/>
    </junction>
    <junction id="13" type="traffic_light" x="260.00" y="150.00" incLanes="7-13_0 14-13_0 17-13_0 12-13_0" intLanes=":13_0_0 :13_1_0 :13_2_0 :13_3_0 :13_4_0 :13_5_0 :13_6_0 :13_7_0" shape="256.80,157.20 263.20,157.20 267.20,153.20 267.20,146.80 263.20,142.80 256.80,142.80 252.80,146.80 252.80,153.20">
        <request index="0" response="00000000" foes="00001000" cont="0"/>
        <request index="1" response="00000000" foes="11001000" cont="0"/>
        <request index="2" response="00100000" foes="00100000" cont="0"/>
        <request index="3" response="00100011" foes="00100011" cont="0"/>
        <request index="4" response="00000000" foes="10000000" cont="0"/>
        <request index="5" response="00000000" foes="10001100" cont="0"/>
        <request index="6" response="00000010" foes="00000010" cont="0"/>
        <request index="7" response="00110010" foes="00110010" cont="0"/>
    </junction>
    <junction id="14" type="priority" x="360.00" y="150.00" incLanes="15-14_0 13-14_0" intLanes=":14_0_0 :14_4_0 :14_2_0 :14_5_0" shape="360.00,153.20 360.00,146.80 360.00,153.20">
        <request index="0" response="0000" foes="1000" cont="0"/>
        <request index="1" response="0100" foes="0100" cont="1"/>
        <request index="2" response="0000" foes="0010" cont="0"/>
        <request index="3" response="0001" foes="0001" cont="1"/>
    </junction>
    <junction id="15" type="priority" x="370.00" y="150.00" incLanes="14-15_0" intLanes=":15_0_0" shape="370.00,150.00 370.00,146.80 370.00,150.00">
        <request index="0" response="0" foes="0" cont="0"/>
    </junction>
    <junction id="16" type="priority" x="110.00" y="50.00" incLanes="12-16_0 18-16_0" intLanes=":16_0_0 :16_4_0 :16_2_0 :16_5_0" shape="106.80,50.00 113.20,50.00 106.80,50.00">
        <request index="0" response="0000" foes="1000" cont="0"/>
        <request index="1" response="0100" foes="0100" cont="1"/>
        <request index="2" response="0000" foes="0010" cont="0"/>
        <request index="3" response="0001" foes="0001" cont="1"/>
    </junction>
    <junction id="17" type="priority" x="260.00" y="50.00" incLanes="13-17_0 19-17_0" intLanes=":17_0_0 :17_4_0 :17_2_0 :17_5_0" shape="256.80,50.00 263.20,50.00 256.80,50.00">
        <request index="0" response="0000" foes="1000" cont="0"/>
        <request index="1" response="0100" foes="0100" cont="1"/>
        <request index="2" response="0000" foes="0010" cont="0"/>
        <request index="3" response="0001" foes="0001" cont="1"/>
    </junction>
    <junction id="18" type="priority" x="110.00" y="40.00" incLanes="16-18_0" intLanes=":18_0_0" shape="110.00,40.00 106.80,40.00 110.00,40.00">
        <request index="0" response="0" foes="0" cont="0"/>
    </junction>
    <junction id="19" type="priority" x="260.00" y="40.00" incLanes="17-19_0" intLanes=":19_0_0" shape="260.00,40.00 256.80,40.00 260.00,40.00">
        <request index="0" response="0" foes="0" cont="0"/>
    </junction>
    <junction id="2" type="priority" x="110.00" y="400.00" incLanes="0-2_0 6-2_0" intLanes=":2_0_0 :2_4_0 :2_2_0 :2_5_0" shape="106.80,400.00 113.20,400.00 106.80,400.00">
        <request index="0" response="0000" foes="1000" cont="0"/>
        <request index="1" response="0100" foes="0100" cont="1"/>
        <request index="2" response="0000" foes="0010" cont="0"/>
        <request index="3" response="0001" foes="0001" cont="1"/>
    </junction>
    <junction id="3" type="priority" x="260.00" y="400.00" incLanes="1-3_0 7-3_0" intLanes=":3_0_0 :3_4_0 :3_2_0 :3_5_0" shape="256.80,400.00 263.20,400.00 256.80,400.00">
        <request index="0" response="0000" foes="1000" cont="0"/>
        <request index="1" response="0100" foes="0100" cont="1"/>
        <request index="2" response="0000" foes="0010" cont="0"/>
        <request index="3" response="0001" foes="0001" cont="1"/>
    </junction>