<routes>

    <vType id="typeW" accel="0.8" decel="4.5" sigma="0.3" length="5" minGap="2.0" maxSpeed="25" guiShape="passenger"/>
    <vType id="typeNL" accel="0.8" decel="4.5" sigma="0.3" length="5" minGap="2.0" maxSpeed="25" guiShape="passenger"/>
    <vType id="typeSL" accel="0.8" decel="4.5" sigma="0.3" length="5" minGap="2.0" maxSpeed="25" guiShape="passenger"/>
    <vType id="typeNR" accel="0.8" decel="4.5" sigma="0.3" length="5" minGap="2.0" maxSpeed="25" guiShape="passenger"/>
    <vType id="typeSR" accel="0.8" decel="4.5" sigma="0.3" length="5" minGap="2.0" maxSpeed="25" guiShape="passenger"/>
    <vType id="typeE" accel="0.8" decel="4.5" sigma="0.3" length="5" minGap="2.0" maxSpeed="25" guiShape="passenger"/>

    <route id="east-west" edges="ee-e ers rsls lsw w-we" />
    <route id="east-north_left" edges="ee-e ers rsls lsnl" />
    <route id="east-north_right" edges="ee-e ers rsnr" />

    <route id="west-east" edges="we-w wls lsrs rse e-ee" />
    <route id="west-south_left" edges="we-w wls lssl" />
    <route id="west-south_right" edges="we-w wls lsrs rssr" />

    <route id="north_left-south_left" edges="nle-nl nlls lssl sl-sle" />
    <route id="north_left-west" edges="nle-nl nlls lsw w-we" />

    <route id="north_right-south_right" edges="nre-nr nrrs rssr sr-sre" />
    <route id="north_right-west" edges="nre-nr nrrs rsls lsw w-we" />
    <route id="north_right-north_left" edges="nre-nr nrrs rsls lsnl nl-nle" />

    <route id="south_right-north_right" edges="sre-sr srrs rsnr nr-nre" />
    <route id="south_right-east" edges="sre-sr srrs rse e-ee" />

    <route id="south_left-north_left" edges="sle-sl slls lsnl nl-nle" />
    <route id="south_left-south_right" edges="sle-sl slls lsrs rssr sr-sre" />
    <route id="south_left-east" edges="sle-sl slls lsrs rse e-ee" />
    
    <vehicle id="en_0" type="typeW" route="east-west" depart="0" color="#42CAFD"/>
    <vehicle id="en_1" type="typeW" route="north_left-west" depart="1" color="#EC0B43"/>
    <vehicle id="en_2" type="typeW" route="north_right-west" depart="2" color="#D3D0CB"/>
    <vehicle id="en_3" type="typeSL" route="west-south_left" depart="3" color="#800000"/>
    <vehicle id="en_4" type="typeSL" route="north_left-south_left" depart="4" color="#EC0B43"/>
    <vehicle id="en_5" type="typeSL" route="west-south_left" depart="5" color="#800000"/>
    <vehicle id="en_6" type="typeSL" route="north_left-south_left" depart="6" color="#EC0B43"/>
    <vehicle id="en_7" type="typeSR" route="west-south_right" depart="7" color="#F0E68C"/>
    <vehicle id="en_8" type="typeSL" route="north_right-south_right" depart="8" color="#D3D0CB"/>
    <vehicle id="en_9" type="typeSL" route="south_left-south_right" depart="9" color="#D3D0CB"/>
    <vehicle id="en_10" type="typeNL" route="east-north_left" depart="10" color="#42CAFD"/>
    <vehicle id="en_11" type="typeNL" route="north_right-north_left" depart="11" color="#2E8B57"/>
    <vehicle id="en_12" type="typeNL" route="south_left-north_left" depart="12" color="#2E8B57"/>
    <vehicle id="en_13" type="typeNR" route="east-north_right" depart="13" color="#EC0B43"/>
    <vehicle id="en_14" type="typeNR" route="south_right-north_right" depart="14" color="#800000"/>
    <vehicle id="en_15" type="typeNL" route="east-north_left" depart="15" color="#42CAFD"/>
    <vehicle id="en_16" type="typeNL" route="north_right-north_left" depart="16" color="#2E8B57"/>
    <vehicle id="en_17" type="typeNL" route="south_left-north_left" depart="17" color="#2E8B57"/>
    <vehicle id="en_18" type="typeSL" route="west-south_left" depart="18" color="#800000"/>
    <vehicle id="en_19" type="typeSL" route="north_left-south_left" depart="19" color="#EC0B43"/>
    <vehicle id="en_20" type="typeW" route="east-west" depart="20" color="#42CAFD"/>
    <vehicle id="en_21" type="typeW" route="north_left-west" depart="21" color="#EC0B43"/>
    <vehicle id="en_22" type="typeW" route="north_right-west" depart="22" color="#D3D0CB"/>
    <vehicle id="en_23" type="typeW" route="east-west" depart="23" color="#42CAFD"/>
    <vehicle id="en_24" type="typeW" route="north_left-west" depart="24" color="#EC0B43"/>
    <vehicle id="en_25" type="typeW" route="north_right-west" depart="25" color="#D3D0CB"/>
    <vehicle id="en_26" type="typeSL" route="west-south_left" depart="26" color="#800000"/>
    <vehicle id="en_27" type="typeSL" route="north_left-south_left" depart="27" color="#EC0B43"/>
    <vehicle id="en_28" type="typeE" route="west-east" depart="28" color="#800000"/>
    <vehicle id="es_29" type="typeE" route="south_right-east" depart="29" color="#F0E68C"/>
    <vehicle id="ew_30" type="typeE" route="south_left-east" depart="30" color="#2E8B57"/>
    <vehicle id="en_31" type="typeE" route="west-east" depart="31" color="#800000"/>
    <vehicle id="es_32" type="typeE" route="south_right-east" depart="32" color="#F0E68C"/>
    <vehicle id="ew_33" type="typeE" route="south_left-east" depart="33" color="#2E8B57"/>
    <vehicle id="en_34" type="typeE" route="west-east" depart="34" color="#800000"/>
    <vehicle id="es_35" type="typeE" route="south_right-east" depart="35" color="#F0E68C"/>
    <vehicle id="ew_36" type="typeE" route="south_left-east" depart="36" color="#2E8B57"/>
    <vehicle id="en_37" type="typeSR" route="west-south_right" depart="37" color="#F0E68C"/>
    <vehicle id="en_38" type="typeSL" route="north_right-south_right" depart="38" color="#D3D0CB"/>
    <vehicle id="en_39" type="typeSL" route="south_left-south_right" depart="39" color="#D3D0CB"/>
    <vehicle id="en_40" type="typeSL" route="west-south_left" depart="40" color="#800000"/>
    <vehicle id="en_41" type="typeSL" route="north_left-south_left" depart="41" color="#EC0B43"/>
    <vehicle id="en_42" type="typeSL" route="west-south_left" depart="42" color="#800000"/>
    <vehicle id="en_43" type="typeSL" route="north_left-south_left" depart="43" color="#EC0B43"/>
    <vehicle id="en_44" type="typeNR" route="east-north_right" depart="44" color="#EC0B43"/>
    <vehicle id="en_45" type="typeNR" route="south_right-north_right" depart="45" color="#800000"/>
    <vehicle id="en_46" type="typeSR" route="west-south_right" depart="46" color="#F0E68C"/>
    <vehicle id="en_47" type="typeSL" route="north_right-south_right" depart="47" color="#D3D0CB"/>
    <vehicle id="en_48" type="typeSL" route="south_left-south_right" depart="48" color="#D3D0CB"/>
    <vehicle id="en_49" type="typeSL" route="west-south_left" depart="49" color="#800000"/>
    <vehicle id="en_50" type="typeSL" route="north_left-south_left" depart="50" color="#EC0B43"/>
    <vehicle id="en_51" type="typeSL" route="west-south_left" depart="51" color="#800000"/>
    <vehicle id="en_52" type="typeSL" route="north_left-south_left" depart="52" color="#EC0B43"/>
    <vehicle id="en_53" type="typeW" route="east-west" depart="53" color="#42CAFD"/>
    <vehicle id="en_54" type="typeW" route="north_left-west" depart="54" color="#EC0B43"/>
    <vehicle id="en_55" type="typeW" route="north_right-west" depart="55" color="#D3D0CB"/>
    <vehicle id="en_56" type="typeE" route="west-east" depart="56" color="#800000"/>
    <vehicle id="es_57" type="typeE" route="south_right-east" depart="57" color="#F0E68C"/>
    <vehicle id="ew_58" type="typeE" route="south_left-east" depart="58" color="#2E8B57"/>
    <vehicle id="en_59" type="typeNL" route="east-north_left" depart="59" color="#42CAFD"/>
    <vehicle id="en_60" type="typeNL" route="north_right-north_left" depart="60" color="#2E8B57"/>
    <vehicle id="en_61" type="typeNL" route="south_left-north_left" depart="61" color="#2E8B57"/>
    <vehicle id="en_62" type="typeSR" route="west-south_right" depart="62" color="#F0E68C"/>
    <vehicle id="en_63" type="typeSL" route="north_right-south_right" depart="63" color="#D3D0CB"/>
    <vehicle id="en_64" type="typeSL" route="south_left-south_right" depart="64" color="#D3D0CB"/>
    <vehicle id="en_65" type="typeSL" route="west-south_left" depart="65" color="#800000"/>
    <vehicle id="en_66" type="typeSL" route="north_left-south_left" depart="66" color="#EC0B43"/>
    <vehicle id="en_67" type="typeSL" route="west-south_left" depart="67" color="#800000"/>
    <vehicle id="en_68" type="typeSL" route="north_left-south_left" depart="68" color="#EC0B43"/>
    <vehicle id="en_69" type="typeE" route="west-east" depart="69" color="#800000"/>
    <vehicle id="es_70" type="typeE" route="south_right-east" depart="70" color="#F0E68C"/>
    <vehicle id="ew_71" type="typeE" route="south_left-east" depart="71" color="#2E8B57"/>
    <vehicle id="en_72" type="typeNL" route="east-north_left" depart="72" color="#42CAFD"/>
    <vehicle id="en_73" type="typeNL" route="north_right-north_left" depart="73" color="#2E8B57"/>
    <vehicle id="en_74" type="typeNL" route="south_left-north_left" depart="74" color="#2E8B57"/>
    <vehicle id="en_75" type="typeSL" route="west-south_left" depart="75" color="#800000"/>
    <vehicle id="en_76" type="typeSL" route="north_left-south_left" depart="76" color="#EC0B43"/>
    <vehicle id="en_77" type="typeSR" route="west-south_right" depart="77" color="#F0E68C"/>
    <vehicle id="en_78" type="typeSL" route="north_right-south_right" depart="78" color="#D3D0CB"/>
    <vehicle id="en_79" type="typeSL" route="south_left-south_right" depart="79" color="#D3D0CB"/>
    <vehicle id="en_80" type="typeW" route="east-west" depart="80" color="#42CAFD"/>
    <vehicle id="en_81" type="typeW" route="north_left-west" depart="81" color="#EC0B43"/>
    <vehicle id="en_82" type="typeW" route="north_right-west" depart="82" color="#D3D0CB"/>
    <vehicle id="en_83" type="typeNL" route="east-north_left" depart="83" color="#42CAFD"/>
    <vehicle id="en_84" type="typeNL" route="north_right-north_left" depart="84" color="#2E8B57"/>
    <vehicle id="en_85" type="typeNL" route="south_left-north_left" depart="85" color="#2E8B57"/>
    <vehicle id="en_86" type="typeNL" route="east-north_left" depart="86" color="#42CAFD"/>
    <vehicle id="en_87" type="typeNL" route="north_right-north_left" depart="87" color="#2E8B57"/>
    <vehicle id="en_88" type="typeNL" route="south_left-north_left" depart="88" color="#2E8B57"/>
    <vehicle id="en_89" type="typeNL" route="east-north_left" depart="89" color="#42CAFD"/>
    <vehicle id="en_90" type="typeNL" route="north_right-north_left" depart="90" color="#2E8B57"/>
    <vehicle id="en_91" type="typeNL" route="south_left-north_left" depart="91" color="#2E8B57"/>
    <vehicle id="en_92" type="typeSR" route="west-south_right" depart="92" color="#F0E68C"/>
    <vehicle id="en_93" type="typeSL" route="north_right-south_right" depart="93" color="#D3D0CB"/>
    <vehicle id="en_94" type="typeSL" route="south_left-south_right" depart="94" color="#D3D0CB"/>
    <vehicle id="en_95" type="typeW" route="east-west" depart="95" color="#42CAFD"/>
    <vehicle id="en_96" type="typeW" route="north_left-west" depart="96" color="#EC0B43"/>
    <vehicle id="en_97" type="typeW" route="north_right-west" depart="97" color="#D3D0CB"/>
    <vehicle id="en_98" type="typeE" route="west-east" depart="98" color="#800000"/>
    <vehicle id="es_99" type="typeE" route="south_right-east" depart="99" color="#F0E68C"/>
    <vehicle id="ew_100" type="typeE" route="south_left-east" depart="100" color="#2E8B57"/>
    <vehicle id="en_101" type="typeW" route="east-west" depart="101" color="#42CAFD"/>
    <vehicle id="en_102" type="typeW" route="north_left-west" depart="102" color="#EC0B43"/>
    <vehicle id="en_103" type="typeW" route="north_right-west" depart="103" color="#D3D0CB"/>
    <vehicle id="en_104" type="typeNR" route="east-north_right" depart="104" color="#EC0B43"/>
    <vehicle id="en_105" type="typeNR" route="south_right-north_right" depart="105" color="#800000"/>
    <vehicle id="en_106" type="typeSR" route="west-south_right" depart="106" color="#F0E68C"/>
    <vehicle id="en_107" type="typeSL" route="north_right-south_right" depart="107" color="#D3D0CB"/>
    <vehicle id="en_108" type="typeSL" route="south_left-south_right" depart="108" color="#D3D0CB"/>
    <vehicle id="en_109" type="typeE" route="west-east" depart="109" color="#800000"/>
    <vehicle id="es_110" type="typeE" route="south_right-east" depart="110" color="#F0E68C"/>
    <vehicle id="ew_111" type="typeE" route="south_left-east" depart="111" color="#2E8B57"/>
    <vehicle id="en_112" type="typeW" route="east-west" depart="112" color="#42CAFD"/>
    <vehicle id="en_113" type="typeW" route="north_left-west" depart="113" color="#EC0B43"/>
    <vehicle id="en_114" type="typeW" route="north_right-west" depart="114" color="#D3D0CB"/>
    <vehicle id="en_115" type="typeSR" route="west-south_right" depart="115" color="#F0E68C"/>
    <vehicle id="en_116" type="typeSL" route="north_right-south_right" depart="116" color="#D3D0CB"/>
    <vehicle id="en_117" type="typeSL" route="south_left-south_right" depart="117" color="#D3D0CB"/>
    <vehicle id="en_118" type="typeSL" route="west-south_left" depart="118" color="#800000"/>
    <vehicle id="en_119" type="typeSL" route="north_left-south_left" depart="119" color="#EC0B43"/>
    <vehicle id="en_120" type="typeNL" route="east-north_left" depart="120" color="#42CAFD"/>
    <vehicle id="en_121" type="typeNL" route="north_right-north_left" depart="121" color="#2E8B57"/>
    <vehicle id="en_122" type="typeNL" route="south_left-north_left" depart="122" color="#2E8B57"/>
    <vehicle id="en_123" type="typeSL" route="west-south_left" depart="123" color="#800000"/>
    <vehicle id="en_124" type="typeSL" route="north_left-south_left" depart="124" color="#EC0B43"/>
    <vehicle id="en_125" type="typeNL" route="east-north_left" depart="125" color="#42CAFD"/>
    <vehicle id="en_126" type="typeNL" route="north_right-north_left" depart="126" color="#2E8B57"/>
    <vehicle id="en_127" type="typeNL" route="south_left-north_left" depart="127" color="#2E8B57"/>
    <vehicle id="en_128" type="typeNR" route="east-north_right" depart="128" color="#EC0B43"/>
    <vehicle id="en_129" type="typeNR" route="south_right-north_right" depart="129" color="#800000"/>
    <vehicle id="en_130" type="typeNR" route="east-north_right" depart="130" color="#EC0B43"/>
    <vehicle id="en_131" type="typeNR" route="south_right-north_right" depart="131" color="#800000"/>
    <vehicle id="en_132" type="typeW" route="east-west" depart="132" color="#42CAFD"/>
    <vehicle id="en_133" type="typeW" route="north_left-west" depart="133" color="#EC0B43"/>
    <vehicle id="en_134" type="typeW" route="north_right-west" depart="134" color="#D3D0CB"/>
    <vehicle id="en_135" type="typeW" route="east-west" depart="135" color="#42CAFD"/>
    <vehicle id="en_136" type="typeW" route="north_left-west" depart="136" color="#EC0B43"/>
    <vehicle id="en_137" type="typeW" route="north_right-west" depart="137" color="#D3D0CB"/>
    <vehicle id="en_138" type="typeSL" route="west-south_left" depart="138" color="#800000"/>
    <vehicle id="en_139" type="typeSL" route="north_left-south_left" depart="139" color="#EC0B43"/>
    <vehicle id="en_140" type="typeW" route="east-west" depart="140" color="#42CAFD"/>
    <vehicle id="en_141" type="typeW" route="north_left-west" depart="141" color="#EC0B43"/>
    <vehicle id="en_142" type="typeW" route="north_right-west" depart="142" color="#D3D0CB"/>
    <vehicle id="en_143" type="typeSL" route="west-south_left" depart="143" color="#800000"/>
    <vehicle id="en_144" type="typeSL" route="north_left-south_left" depart="144" color="#EC0B43"/>
    <vehicle id="en_145" type="typeW" route="east-west" depart="145" color="#42CAFD"/>
    <vehicle id="en_146" type="typeW" route="north_left-west" depart="146" color="#EC0B43"/>
    <vehicle id="en_147" type="typeW" route="north_right-west" depart="147" color="#D3D0CB"/>
    <vehicle id="en_148" type="typeSL" route="west-south_left" depart="148" color="#800000"/>
    <vehicle id="en_149" type="typeSL" route="north_left-south_left" depart="149" color="#EC0B43"/>
    <vehicle id="en_150" type="typeNR" route="east-north_right" depart="150" color="#EC0B43"/>
    <vehicle id="en_151" type="typeNR" route="south_right-north_right" depart="151" color="#800000"/>
    <vehicle id="en_152" type="typeSL" route="west-south_left" depart="152" color="#800000"/>
    <vehicle id="en_153" type="typeSL" route="north_left-south_left" depart="153" color="#EC0B43"/>
    <vehicle id="en_154" type="typeNR" route="east-north_right" depart="154" color="#EC0B43"/>
    <vehicle id="en_155" type="typeNR" route="south_right-north_right" depart="155" color="#800000"/>
    <vehicle id="en_156" type="typeW" route="east-west" depart="156" color="#42CAFD"/>
    <vehicle id="en_157" type="typeW" route="north_left-west" depart="157" color="#EC0B43"/>
    <vehicle id="en_158" type="typeW" route="north_right-west" depart="158" color="#D3D0CB"/>
    <vehicle id="en_159" type="typeNR" route="east-north_right" depart="159" color="#EC0B43"/>
    <vehicle id="en_160" type="typeNR" route="south_right-north_right" depart="160" color="#800000"/>
    <vehicle id="en_161" type="typeNR" route="east-north_right" depart="161" color="#EC0B43"/>
    <vehicle id="en_162" type="typeNR" route="south_right-north_right" depart="162" color="#800000"/>
    <vehicle id="en_163" type="typeE" route="west-east" depart="163" color="#800000"/>
    <vehicle id="es_164" type="typeE" route="south_right-east" depart="164" color="#F0E68C"/>
    <vehicle id="ew_165" type="typeE" route="south_left-east" depart="165" color="#2E8B57"/>
    <vehicle id="en_166" type="typeNL" route="east-north_left" depart="166" color="#42CAFD"/>
    <vehicle id="en_167" type="typeNL" route="north_right-north_left" depart="167" color="#2E8B57"/>
    <vehicle id="en_168" type="typeNL" route="south_left-north_left" depart="168" color="#2E8B57"/>
    <vehicle id="en_169" type="typeNR" route="east-north_right" depart="169" color="#EC0B43"/>
    <vehicle id="en_170" type="typeNR" route="south_right-north_right" depart="170" color="#800000"/>
    <vehicle id="en_171" type="typeE" route="west-east" depart="171" color="#800000"/>
    <vehicle id="es_172" type="typeE" route="south_right-east" depart="172" color="#F0E68C"/>
    <vehicle id="ew_173" type="typeE" route="south_left-east" depart="173" color="#2E8B57"/>
    <vehicle id="en_174" type="typeSR" route="west-south_right" depart="174" color="#F0E68C"/>
    <vehicle id="en_175" type="typeSL" route="north_right-south_right" depart="175" color="#D3D0CB"/>
    <vehicle id="en_176" type="typeSL" route="south_left-south_right" depart="176" color="#D3D0CB"/>
    <vehicle id="en_177" type="typeNR" route="east-north_right" depart="177" color="#EC0B43"/>
    <vehicle id="en_178" type="typeNR" route="south_right-north_right" depart="178" color="#800000"/>
    <vehicle id="en_179" type="typeW" route="east-west" depart="179" color="#42CAFD"/>
    <vehicle id="en_180" type="typeW" route="north_left-west" depart="180" color="#EC0B43"/>
    <vehicle id="en_181" type="typeW" route="north_right-west" depart="181" color="#D3D0CB"/>
    <vehicle id="en_182" type="typeSR" route="west-south_right" depart="182" color="#F0E68C"/>
    <vehicle id="en_183" type="typeSL" route="north_right-south_right" depart="183" color="#D3D0CB"/>
    <vehicle id="en_184" type="typeSL" route="south_left-south_right" depart="184" color="#D3D0CB"/>
    <vehicle id="en_185" type="typeNR" route="east-north_right" depart="185" color="#EC0B43"/>
    <vehicle id="en_186" type="typeNR" route="south_right-north_right" depart="186" color="#800000"/>
    <vehicle id="en_187" type="typeSL" route="west-south_left" depart="187" color="#800000"/>
    <vehicle id="en_188" type="typeSL" route="north_left-south_left" depart="188" color="#EC0B43"/>
    <vehicle id="en_189" type="typeSL" route="west-south_left" depart="189" color="#800000"/>
    <vehicle id="en_190" type="typeSL" route="north_left-south_left" depart="190" color="#EC0B43"/>
    <vehicle id="en_191" type="typeNL" route="east-north_left" depart="191" color="#42CAFD"/>
    <vehicle id="en_192" type="typeNL" route="north_right-north_left" depart="192" color="#2E8B57"/>
    <vehicle id="en_193" type="typeNL" route="south_left-north_left" depart="193" color="#2E8B57"/>
    <vehicle id="en_194" type="typeSL" route="west-south_left" depart="194" color="#800000"/>
    <vehicle id="en_195" type="typeSL" route="north_left-south_left" depart="195" color="#EC0B43"/>
    <vehicle id="en_196" type="typeSR" route="west-south_right" depart="196" color="#F0E68C"/>
    <vehicle id="en_197" type="typeSL" route="north_right-south_right" depart="197" color="#D3D0CB"/>
    <vehicle id="en_198" type="typeSL" route="south_left-south_right" depart="198" color="#D3D0CB"/>
    <vehicle id="en_199" type="typeSR" route="west-south_right" depart="199" color="#F0E68C"/>
    <vehicle id="en_200" type="typeSL" route="north_right-south_right" depart="200" color="#D3D0CB"/>
    <vehicle id="en_201" type="typeSL" route="south_left-south_right" depart="201" color="#D3D0CB"/>
    <vehicle id="en_202" type="typeSL" route="west-south_left" depart="202" color="#800000"/>
    <vehicle id="en_203" type="typeSL" route="north_left-south_left" depart="203" color="#EC0B43"/>
    <vehicle id="en_204" type="typeSR" route="west-south_right" depart="204" color="#F0E68C"/>
    <vehicle id="en_205" type="typeSL" route="north_right-south_right" depart="205" color="#D3D0CB"/>
    <vehicle id="en_206" type="typeSL" route="south_left-south_right" depart="206" color="#D3D0CB"/>
    <vehicle id="en_207" type="typeNL" route="east-north_left" depart="207" color="#42CAFD"/>
    <vehicle id="en_208" type="typeNL" route="north_right-north_left" depart="208" color="#2E8B57"/>
    <vehicle id="en_209" type="typeNL" route="south_left-north_left" depart="209" color="#2E8B57"/>
    <vehicle id="en_210" type="typeNL" route="east-north_left" depart="210" color="#42CAFD"/>
    <vehicle id="en_211" type="typeNL" route="north_right-north_left" depart="211" color="#2E8B57"/>
    <vehicle id="en_212" type="typeNL" route="south_left-north_left" depart="212" color="#2E8B57"/>
    <vehicle id="en_213" type="typeW" route="east-west" depart="213" color="#42CAFD"/>
    <vehicle id="en_214" type="typeW" route="north_left-west" depart="214" color="#EC0B43"/>
    <vehicle id="en_215" type="typeW" route="north_right-west" depart="215" color="#D3D0CB"/>
    <vehicle id="en_216" type="typeNR" route="east-north_right" depart="216" color="#EC0B43"/>
    <vehicle id="en_217" type="typeNR" route="south_right-north_right" depart="217" color="#800000"/>
    <vehicle id="en_218" type="typeW" route="east-west" depart="218" color="#42CAFD"/>
    <vehicle id="en_219" type="typeW" route="north_left-west" depart="219" color="#EC0B43"/>
    <vehicle id="en_220" type="typeW" route="north_right-west" depart="220" color="#D3D0CB"/>
    <vehicle id="en_221" type="typeE" route="west-east" depart="221" color="#800000"/>
    <vehicle id="es_222" type="typeE" route="south_right-east" depart="222" color="#F0E68C"/>
    <vehicle id="ew_223" type="typeE" route="south_left-east" depart="223" color="#2E8B57"/>
    <vehicle id="en_224" type="typeSL" route="west-south_left" depart="224" color="#800000"/>
    <vehicle id="en_225" type="typeSL" route="north_left-south_left" depart="225" color="#EC0B43"/>
    <vehicle id="en_226" type="typeSL" route="west-south_left" depart="226" color="#800000"/>
    <vehicle id="en_227" type="typeSL" route="north_left-south_left" depart="227" color="#EC0B43"/>
    <vehicle id="en_228" type="typeNL" route="east-north_left" depart="228" color="#42CAFD"/>
    <vehicle id="en_229" type="typeNL" route="north_right-north_left" depart="229" color="#2E8B57"/>
    <vehicle id="en_230" type="typeNL" route="south_left-north_left" depart="230" color="#2E8B57"/>
    <vehicle id="en_231" type="typeNR" route="east-north_right" depart="231" color="#EC0B43"/>
    <vehicle id="en_232" type="typeNR" route="south_right-north_right" depart="232" color="#800000"/>
    <vehicle id="en_233" type="typeSL" route="west-south_left" depart="233" color="#800000"/>
    <vehicle id="en_234" type="typeSL" route="north_left-south_left" depart="234" color="#EC0B43"/>
    <vehicle id="en_235" type="typeSL" route="west-south_left" depart="235" color="#800000"/>
    <vehicle id="en_236" type="typeSL" route="north_left-south_left" depart="236" color="#EC0B43"/>
    <vehicle id="en_237" type="typeSR" route="west-south_right" depart="237" color="#F0E68C"/>
    <vehicle id="en_238" type="typeSL" route="north_right-south_right" depart="238" color="#D3D0CB"/>
    <vehicle id="en_239" type="typeSL" route="south_left-south_right" depart="239" color="#D3D0CB"/>
    <vehicle id="en_240" type="typeNR" route="east-north_right" depart="240" color="#EC0B43"/>
    <vehicle id="en_241" type="typeNR" route="south_right-north_right" depart="241" color="#800000"/>
    <vehicle id="en_242" type="typeNR" route="east-north_right" depart="242" color="#EC0B43"/>
    <vehicle id="en_243" type="typeNR" route="south_right-north_right" depart="243" color="#800000"/>
    <vehicle id="en_244" type="typeSL" route="west-south_left" depart="244" color="#800000"/>
    <vehicle id="en_245" type="typeSL" route="north_left-south_left" depart="245" color="#EC0B43"/>
    <vehicle id="en_246" type="typeSL" route="west-south_left" depart="246" color="#800000"/>
    <vehicle id="en_247" type="typeSL" route="north_left-south_left" depart="247" color="#EC0B43"/>
    <vehicle id="en_248" type="typeSL" route="west-south_left" depart="248" color="#800000"/>
    <vehicle id="en_249" type="typeSL" route="north_left-south_left" depart="249" color="#EC0B43"/>
    <vehicle id="en_250" type="typeW" route="east-west" depart="250" color="#42CAFD"/>
    <vehicle id="en_251" type="typeW" route="north_left-west" depart="251" color="#EC0B43"/>
    <vehicle id="en_252" type="typeW" route="north_right-west" depart="252" color="#D3D0CB"/>
    <vehicle id="en_253" type="typeSL" route="west-south_left" depart="253" color="#800000"/>
    <vehicle id="en_254" type="typeSL" route="north_left-south_left" depart="254" color="#EC0B43"/>
    <vehicle id="en_255" type="typeNR" route="east-north_right" depart="255" color="#EC0B43"/>
    <vehicle id="en_256" type="typeNR" route="south_right-north_right" depart="256" color="#800000"/>
    <vehicle id="en_257" type="typeSL" route="west-south_left" depart="257" color="#800000"/>
    <vehicle id="en_258" type="typeSL" route="north_left-south_left" depart="258" color="#EC0B43"/>
    <vehicle id="en_259" type="typeSR" route="west-south_right" depart="259" color="#F0E68C"/>
    <vehicle id="en_260" type="typeSL" route="north_right-south_right" depart="260" color="#D3D0CB"/>
    <vehicle id="en_261" type="typeSL" route="south_left-south_right" depart="261" color="#D3D0CB"/>
    <vehicle id="en_262" type="typeNR" route="east-north_right" depart="262" color="#EC0B43"/>
    <vehicle id="en_263" type="typeNR" route="south_right-north_right" depart="263" color="#800000"/>
    <vehicle id="en_264" type="typeNL" route="east-north_left" depart="264" color="#42CAFD"/>
    <vehicle id="en_265" type="typeNL" route="north_right-north_left" depart="265" color="#2E8B57"/>
    <vehicle id="en_266" type="typeNL" route="south_left-north_left" depart="266" color="#2E8B57"/>
    <vehicle id="en_267" type="typeNL" route="east-north_left" depart="267" color="#42CAFD"/>
    <vehicle id="en_268" type="typeNL" route="north_right-north_left" depart="268" color="#2E8B57"/>
    <vehicle id="en_269" type="typeNL" route="south_left-north_left" depart="269" color="#2E8B57"/>
    <vehicle id="en_270" type="typeSL" route="west-south_left" depart="270" color="#800000"/>
    <vehicle id="en_271" type="typeSL" route="north_left-south_left" depart="271" color="#EC0B43"/>
    <vehicle id="en_272" type="typeNR" route="east-north_right" depart="272" color="#EC0B43"/>
    <vehicle id="en_273" type="typeNR" route="south_right-north_right" depart="273" color="#800000"/>
    <vehicle id="en_274" type="typeNR" route="east-north_right" depart="274" color="#EC0B43"/>
    <vehicle id="en_275" type="typeNR" route="south_right-north_right" depart="275" color="#800000"/>
    <vehicle id="en_276" type="typeNL" route="east-north_left" depart="276" color="#42CAFD"/>
    <vehicle id="en_277" type="typeNL" route="north_right-north_left" depart="277" color="#2E8B57"/>
    <vehicle id="en_278" type="typeNL" route="south_left-north_left" depart="278" color="#2E8B57"/>
    <vehicle id="en_279" type="typeE" route="west-east" depart="279" color="#800000"/>
    <vehicle id="es_280" type="typeE" route="south_right-east" depart="280" color="#F0E68C"/>
    <vehicle id="ew_281" type="typeE" route="south_left-east" depart="281" color="#2E8B57"/>
    <vehicle id="en_282" type="typeSR" route="west-south_right" depart="282" color="#F0E68C"/>
    <vehicle id="en_283" type="typeSL" route="north_right-south_right" depart="283" color="#D3D0CB"/>
    <vehicle id="en_284" type="typeSL" route="south_left-south_right" depart="284" color="#D3D0CB"/>
    <vehicle id="en_285" type="typeSR" route="west-south_right" depart="285" color="#F0E68C"/>
    <vehicle id="en_286" type="typeSL" route="north_right-south_right" depart="286" color="#D3D0CB"/>
    <vehicle id="en_287" type="typeSL" route="south_left-south_right" depart="287" color="#D3D0CB"/>
    <vehicle id="en_288" type="typeNL" route="east-north_left" depart="288" color="#42CAFD"/>
    <vehicle id="en_289" type="typeNL" route="north_right-north_left" depart="289" color="#2E8B57"/>
    <vehicle id="en_290" type="typeNL" route="south_left-north_left" depart="290" color="#2E8B57"/>
    <vehicle id="en_291" type="typeSL" route="west-south_left" depart="291" color="#800000"/>
    <vehicle id="en_292" type="typeSL" route="north_left-south_left" depart="292" color="#EC0B43"/>
    <vehicle id="en_293" type="typeNR" route="east-north_right" depart="293" color="#EC0B43"/>
    <vehicle id="en_294" type="typeNR" route="south_right-north_right" depart="294" color="#800000"/>